/*---------------------------------------------------------------------------*\
| =========                 |                                                 |
| \\      /  F ield         | OpenFOAM: The Open Source CFD Toolbox           |
|  \\    /   O peration     | Version:  2412                                  |
|   \\  /    A nd           | Website:  www.openfoam.com                      |
|    \\/     M anipulation  |                                                 |
\*---------------------------------------------------------------------------*/
Build  : _2c4871ff-20250317 OPENFOAM=2412 version=2412
Arch   : "LSB;label=32;scalar=64"
Exec   : icoFoam
Date   : Jun 06 2025
Time   : 13:35:04
Host   : 1bac820b4b4e
PID    : 941
I/O    : uncollated
Case   : /root/airfoil
nProcs : 1
trapFpe: Floating point exception trapping enabled (FOAM_SIGFPE).
fileModificationChecking : Monitoring run-time modified files using timeStampMaster (fileModificationSkew 5, maxFileModificationPolls 20)
allowSystemOperations : Allowing user-supplied system call operations

// * * * * * * * * * * * * * * * * * * * * * * * * * * * * * * * * * * * * * //
Create time

Create mesh for time = 0.6


PISO: Operating solver in PISO mode

Reading transportProperties

Reading field p

Reading field U

Reading/calculating face flux field phi


Starting time loop

Time = 0.6001

Courant Number mean: 0.118468 max: 0.320531
smoothSolver:  Solving for Ux, Initial residual = 3.87912e-05, Final residual = 8.08011e-08, No Iterations 1
smoothSolver:  Solving for Uz, Initial residual = 3.49684e-05, Final residual = 8.17553e-08, No Iterations 1
DICPCG:  Solving for p, Initial residual = 0.0694246, Final residual = 0.00322409, No Iterations 2
time step continuity errors : sum local = 7.26983e-09, global = 3.30092e-12, cumulative = -1.47447e-07
DICPCG:  Solving for p, Initial residual = 0.0043251, Final residual = 9.69598e-07, No Iterations 506
time step continuity errors : sum local = 2.32116e-12, global = 1.0703e-15, cumulative = -1.47447e-07
ExecutionTime = 4.88 s  ClockTime = 5 s

Time = 0.6002

Courant Number mean: 0.118468 max: 0.320527
smoothSolver:  Solving for Ux, Initial residual = 3.87123e-05, Final residual = 7.99136e-08, No Iterations 1
smoothSolver:  Solving for Uz, Initial residual = 3.62366e-05, Final residual = 8.90165e-08, No Iterations 1
DICPCG:  Solving for p, Initial residual = 0.0686706, Final residual = 0.00192192, No Iterations 3
time step continuity errors : sum local = 4.35726e-09, global = -5.36624e-12, cumulative = -1.47452e-07
DICPCG:  Solving for p, Initial residual = 0.00422519, Final residual = 9.84648e-07, No Iterations 453
time step continuity errors : sum local = 2.10956e-12, global = 9.33383e-15, cumulative = -1.47452e-07
ExecutionTime = 7.23 s  ClockTime = 7 s

Time = 0.6003

Courant Number mean: 0.118468 max: 0.320523
smoothSolver:  Solving for Ux, Initial residual = 3.83678e-05, Final residual = 7.66426e-08, No Iterations 1
smoothSolver:  Solving for Uz, Initial residual = 3.49952e-05, Final residual = 8.23986e-08, No Iterations 1
DICPCG:  Solving for p, Initial residual = 0.00152736, Final residual = 6.44552e-05, No Iterations 8
time step continuity errors : sum local = 1.37705e-10, global = 5.10047e-13, cumulative = -1.47452e-07
DICPCG:  Solving for p, Initial residual = 0.000182089, Final residual = 9.87229e-07, No Iterations 175
time step continuity errors : sum local = 2.10724e-12, global = -1.27326e-13, cumulative = -1.47452e-07
ExecutionTime = 8.27 s  ClockTime = 8 s

Time = 0.6004

Courant Number mean: 0.118468 max: 0.32052
smoothSolver:  Solving for Ux, Initial residual = 3.82926e-05, Final residual = 7.59643e-08, No Iterations 1
smoothSolver:  Solving for Uz, Initial residual = 3.49519e-05, Final residual = 8.20441e-08, No Iterations 1
DICPCG:  Solving for p, Initial residual = 0.00131949, Final residual = 5.90345e-05, No Iterations 5
time step continuity errors : sum local = 1.25916e-10, global = -7.09659e-14, cumulative = -1.47452e-07
DICPCG:  Solving for p, Initial residual = 0.000159357, Final residual = 9.89967e-07, No Iterations 254
time step continuity errors : sum local = 2.10995e-12, global = -2.01252e-13, cumulative = -1.47452e-07
ExecutionTime = 9.68 s  ClockTime = 10 s

Time = 0.6005

Courant Number mean: 0.118468 max: 0.320516
smoothSolver:  Solving for Ux, Initial residual = 3.82341e-05, Final residual = 7.5458e-08, No Iterations 1
smoothSolver:  Solving for Uz, Initial residual = 3.49324e-05, Final residual = 8.18871e-08, No Iterations 1
DICPCG:  Solving for p, Initial residual = 0.00113185, Final residual = 5.53333e-05, No Iterations 5
time step continuity errors : sum local = 1.17862e-10, global = -3.68854e-14, cumulative = -1.47452e-07
DICPCG:  Solving for p, Initial residual = 0.000144922, Final residual = 9.89311e-07, No Iterations 361
time step continuity errors : sum local = 2.10601e-12, global = -1.6722e-14, cumulative = -1.47452e-07
ExecutionTime = 11.59 s  ClockTime = 12 s

Time = 0.6006

Courant Number mean: 0.118468 max: 0.320512
smoothSolver:  Solving for Ux, Initial residual = 3.81923e-05, Final residual = 7.50835e-08, No Iterations 1
smoothSolver:  Solving for Uz, Initial residual = 3.49042e-05, Final residual = 8.17203e-08, No Iterations 1
DICPCG:  Solving for p, Initial residual = 0.000980241, Final residual = 3.29066e-05, No Iterations 8
time step continuity errors : sum local = 7.00121e-11, global = 3.32772e-13, cumulative = -1.47452e-07
DICPCG:  Solving for p, Initial residual = 0.000128228, Final residual = 9.85968e-07, No Iterations 199
time step continuity errors : sum local = 2.09675e-12, global = 8.30721e-14, cumulative = -1.47452e-07
ExecutionTime = 12.73 s  ClockTime = 13 s

Time = 0.6007

Courant Number mean: 0.118468 max: 0.320508
smoothSolver:  Solving for Ux, Initial residual = 3.8152e-05, Final residual = 7.47942e-08, No Iterations 1
smoothSolver:  Solving for Uz, Initial residual = 3.48857e-05, Final residual = 8.16411e-08, No Iterations 1
DICPCG:  Solving for p, Initial residual = 0.000855533, Final residual = 3.23379e-05, No Iterations 8
time step continuity errors : sum local = 6.87436e-11, global = 3.05193e-13, cumulative = -1.47451e-07
DICPCG:  Solving for p, Initial residual = 0.000117667, Final residual = 9.97574e-07, No Iterations 227
time step continuity errors : sum local = 2.11983e-12, global = 1.11513e-13, cumulative = -1.47451e-07
ExecutionTime = 13.98 s  ClockTime = 14 s

Time = 0.6008

Courant Number mean: 0.118468 max: 0.320505
smoothSolver:  Solving for Ux, Initial residual = 3.81191e-05, Final residual = 7.45696e-08, No Iterations 1
smoothSolver:  Solving for Uz, Initial residual = 3.48638e-05, Final residual = 8.15466e-08, No Iterations 1
DICPCG:  Solving for p, Initial residual = 0.000754066, Final residual = 2.74726e-05, No Iterations 8
time step continuity errors : sum local = 5.83619e-11, global = 2.74635e-13, cumulative = -1.47451e-07
DICPCG:  Solving for p, Initial residual = 0.000106996, Final residual = 9.94097e-07, No Iterations 207
time step continuity errors : sum local = 2.11119e-12, global = 7.91152e-14, cumulative = -1.47451e-07
ExecutionTime = 15.14 s  ClockTime = 15 s

Time = 0.6009

Courant Number mean: 0.118467 max: 0.320501
smoothSolver:  Solving for Ux, Initial residual = 3.80888e-05, Final residual = 7.44009e-08, No Iterations 1
smoothSolver:  Solving for Uz, Initial residual = 3.48472e-05, Final residual = 8.14985e-08, No Iterations 1
DICPCG:  Solving for p, Initial residual = 0.000671345, Final residual = 2.92919e-05, No Iterations 8
time step continuity errors : sum local = 6.21929e-11, global = 1.68249e-13, cumulative = -1.47451e-07
DICPCG:  Solving for p, Initial residual = 0.000101823, Final residual = 9.90751e-07, No Iterations 220
time step continuity errors : sum local = 2.10306e-12, global = -2.60031e-14, cumulative = -1.47451e-07
ExecutionTime = 16.36 s  ClockTime = 16 s

Time = 0.601

Courant Number mean: 0.118467 max: 0.320497
smoothSolver:  Solving for Ux, Initial residual = 3.80625e-05, Final residual = 7.42604e-08, No Iterations 1
smoothSolver:  Solving for Uz, Initial residual = 3.48262e-05, Final residual = 8.14182e-08, No Iterations 1
DICPCG:  Solving for p, Initial residual = 0.00060309, Final residual = 2.61864e-05, No Iterations 8
time step continuity errors : sum local = 5.55752e-11, global = -3.15322e-15, cumulative = -1.47451e-07
DICPCG:  Solving for p, Initial residual = 9.43998e-05, Final residual = 9.9462e-07, No Iterations 226
time step continuity errors : sum local = 2.11046e-12, global = -1.43976e-13, cumulative = -1.47451e-07
ExecutionTime = 17.62 s  ClockTime = 18 s

Time = 0.6011

Courant Number mean: 0.118467 max: 0.320494
smoothSolver:  Solving for Ux, Initial residual = 3.80383e-05, Final residual = 7.41551e-08, No Iterations 1
smoothSolver:  Solving for Uz, Initial residual = 3.48117e-05, Final residual = 8.13847e-08, No Iterations 1
DICPCG:  Solving for p, Initial residual = 0.000546922, Final residual = 2.26047e-05, No Iterations 9
time step continuity errors : sum local = 4.79563e-11, global = -1.03262e-13, cumulative = -1.47451e-07
DICPCG:  Solving for p, Initial residual = 8.62718e-05, Final residual = 9.644e-07, No Iterations 430
time step continuity errors : sum local = 2.04566e-12, global = 3.39437e-14, cumulative = -1.47451e-07
ExecutionTime = 19.9 s  ClockTime = 20 s

Time = 0.6012

Courant Number mean: 0.118467 max: 0.32049
smoothSolver:  Solving for Ux, Initial residual = 3.802e-05, Final residual = 7.40666e-08, No Iterations 1
smoothSolver:  Solving for Uz, Initial residual = 3.47919e-05, Final residual = 8.13095e-08, No Iterations 1
DICPCG:  Solving for p, Initial residual = 0.000499912, Final residual = 2.41972e-05, No Iterations 8
time step continuity errors : sum local = 5.13165e-11, global = 3.76624e-13, cumulative = -1.47451e-07
DICPCG:  Solving for p, Initial residual = 8.48251e-05, Final residual = 9.96233e-07, No Iterations 203
time step continuity errors : sum local = 2.11251e-12, global = 4.62337e-14, cumulative = -1.4745e-07
ExecutionTime = 21.03 s  ClockTime = 21 s

Time = 0.6013

Courant Number mean: 0.118467 max: 0.320486
smoothSolver:  Solving for Ux, Initial residual = 3.79977e-05, Final residual = 7.3992e-08, No Iterations 1
smoothSolver:  Solving for Uz, Initial residual = 3.47763e-05, Final residual = 8.12665e-08, No Iterations 1
DICPCG:  Solving for p, Initial residual = 0.000461528, Final residual = 2.15391e-05, No Iterations 9
time step continuity errors : sum local = 4.56689e-11, global = 1.98512e-13, cumulative = -1.4745e-07
DICPCG:  Solving for p, Initial residual = 7.86909e-05, Final residual = 9.89523e-07, No Iterations 222
time step continuity errors : sum local = 2.09784e-12, global = 4.93469e-14, cumulative = -1.4745e-07
ExecutionTime = 22.27 s  ClockTime = 22 s

Time = 0.6014

Courant Number mean: 0.118467 max: 0.320483
smoothSolver:  Solving for Ux, Initial residual = 3.7977e-05, Final residual = 7.39215e-08, No Iterations 1
smoothSolver:  Solving for Uz, Initial residual = 3.47585e-05, Final residual = 8.1201e-08, No Iterations 1
DICPCG:  Solving for p, Initial residual = 0.000428533, Final residual = 1.82238e-05, No Iterations 9
time step continuity errors : sum local = 3.86325e-11, global = 2.12498e-13, cumulative = -1.4745e-07
DICPCG:  Solving for p, Initial residual = 7.39792e-05, Final residual = 9.85334e-07, No Iterations 199
time step continuity errors : sum local = 2.08863e-12, global = -1.17571e-14, cumulative = -1.4745e-07
ExecutionTime = 23.4 s  ClockTime = 23 s

Time = 0.6015

Courant Number mean: 0.118467 max: 0.320479
smoothSolver:  Solving for Ux, Initial residual = 3.79564e-05, Final residual = 7.38662e-08, No Iterations 1
smoothSolver:  Solving for Uz, Initial residual = 3.47425e-05, Final residual = 8.11583e-08, No Iterations 1
DICPCG:  Solving for p, Initial residual = 0.000401349, Final residual = 1.97392e-05, No Iterations 9
time step continuity errors : sum local = 4.18385e-11, global = 7.87804e-14, cumulative = -1.4745e-07
DICPCG:  Solving for p, Initial residual = 7.2557e-05, Final residual = 9.90987e-07, No Iterations 223
time step continuity errors : sum local = 2.10031e-12, global = -1.10264e-13, cumulative = -1.4745e-07
ExecutionTime = 24.64 s  ClockTime = 25 s

Time = 0.6016

Courant Number mean: 0.118467 max: 0.320475
smoothSolver:  Solving for Ux, Initial residual = 3.79373e-05, Final residual = 7.38088e-08, No Iterations 1
smoothSolver:  Solving for Uz, Initial residual = 3.47246e-05, Final residual = 8.10891e-08, No Iterations 1
DICPCG:  Solving for p, Initial residual = 0.000378151, Final residual = 1.72589e-05, No Iterations 9
time step continuity errors : sum local = 3.65767e-11, global = -5.20443e-14, cumulative = -1.4745e-07
DICPCG:  Solving for p, Initial residual = 6.91225e-05, Final residual = 9.93102e-07, No Iterations 250
time step continuity errors : sum local = 2.10456e-12, global = -1.8558e-13, cumulative = -1.4745e-07
ExecutionTime = 26.02 s  ClockTime = 26 s

Time = 0.6017

Courant Number mean: 0.118467 max: 0.320471
smoothSolver:  Solving for Ux, Initial residual = 3.79189e-05, Final residual = 7.37663e-08, No Iterations 1
smoothSolver:  Solving for Uz, Initial residual = 3.47097e-05, Final residual = 8.10529e-08, No Iterations 1
DICPCG:  Solving for p, Initial residual = 0.000358847, Final residual = 1.42327e-05, No Iterations 12
time step continuity errors : sum local = 3.01596e-11, global = -1.16757e-13, cumulative = -1.4745e-07
DICPCG:  Solving for p, Initial residual = 6.55213e-05, Final residual = 9.87152e-07, No Iterations 428
time step continuity errors : sum local = 2.09171e-12, global = 3.64862e-14, cumulative = -1.4745e-07
ExecutionTime = 28.3 s  ClockTime = 28 s

Time = 0.6018

Courant Number mean: 0.118467 max: 0.320468
smoothSolver:  Solving for Ux, Initial residual = 3.79044e-05, Final residual = 7.37229e-08, No Iterations 1
smoothSolver:  Solving for Uz, Initial residual = 3.46923e-05, Final residual = 8.09831e-08, No Iterations 1
DICPCG:  Solving for p, Initial residual = 0.000341965, Final residual = 1.57752e-05, No Iterations 9
time step continuity errors : sum local = 3.34231e-11, global = 4.50224e-13, cumulative = -1.4745e-07
DICPCG:  Solving for p, Initial residual = 6.51897e-05, Final residual = 9.99991e-07, No Iterations 209
time step continuity errors : sum local = 2.11861e-12, global = 8.60571e-14, cumulative = -1.4745e-07
ExecutionTime = 29.47 s  ClockTime = 30 s

Time = 0.6019

Courant Number mean: 0.118467 max: 0.320464
smoothSolver:  Solving for Ux, Initial residual = 3.78852e-05, Final residual = 7.36831e-08, No Iterations 1
smoothSolver:  Solving for Uz, Initial residual = 3.46766e-05, Final residual = 8.09392e-08, No Iterations 1
DICPCG:  Solving for p, Initial residual = 0.000328204, Final residual = 1.42279e-05, No Iterations 12
time step continuity errors : sum local = 3.01428e-11, global = 2.64433e-13, cumulative = -1.4745e-07
DICPCG:  Solving for p, Initial residual = 6.30059e-05, Final residual = 9.94527e-07, No Iterations 223
time step continuity errors : sum local = 2.1069e-12, global = 1.18194e-13, cumulative = -1.47449e-07
ExecutionTime = 30.75 s  ClockTime = 31 s

Time = 0.602

Courant Number mean: 0.118467 max: 0.32046
smoothSolver:  Solving for Ux, Initial residual = 3.78665e-05, Final residual = 7.36384e-08, No Iterations 1
smoothSolver:  Solving for Uz, Initial residual = 3.466e-05, Final residual = 8.08791e-08, No Iterations 1
DICPCG:  Solving for p, Initial residual = 0.000315759, Final residual = 1.36494e-05, No Iterations 11
time step continuity errors : sum local = 2.89157e-11, global = 2.85566e-13, cumulative = -1.47449e-07
DICPCG:  Solving for p, Initial residual = 6.24938e-05, Final residual = 9.94253e-07, No Iterations 182
time step continuity errors : sum local = 2.10624e-12, global = 6.26462e-14, cumulative = -1.47449e-07
ExecutionTime = 31.8 s  ClockTime = 32 s

Time = 0.6021

Courant Number mean: 0.118467 max: 0.320457
smoothSolver:  Solving for Ux, Initial residual = 3.78475e-05, Final residual = 7.36031e-08, No Iterations 1
smoothSolver:  Solving for Uz, Initial residual = 3.46434e-05, Final residual = 8.08329e-08, No Iterations 1
DICPCG:  Solving for p, Initial residual = 0.000305729, Final residual = 1.35141e-05, No Iterations 12
time step continuity errors : sum local = 2.86278e-11, global = 1.41762e-13, cumulative = -1.47449e-07
DICPCG:  Solving for p, Initial residual = 6.05858e-05, Final residual = 9.76212e-07, No Iterations 221
time step continuity errors : sum local = 2.06792e-12, global = -4.67425e-14, cumulative = -1.47449e-07
ExecutionTime = 33.05 s  ClockTime = 33 s

Time = 0.6022

Courant Number mean: 0.118467 max: 0.320453
smoothSolver:  Solving for Ux, Initial residual = 3.78296e-05, Final residual = 7.35595e-08, No Iterations 1
smoothSolver:  Solving for Uz, Initial residual = 3.46279e-05, Final residual = 8.07727e-08, No Iterations 1
DICPCG:  Solving for p, Initial residual = 0.000296501, Final residual = 1.061e-05, No Iterations 12
time step continuity errors : sum local = 2.2475e-11, global = -8.76101e-15, cumulative = -1.47449e-07
DICPCG:  Solving for p, Initial residual = 5.79412e-05, Final residual = 9.8467e-07, No Iterations 225
time step continuity errors : sum local = 2.08577e-12, global = -1.55672e-13, cumulative = -1.47449e-07
ExecutionTime = 34.31 s  ClockTime = 34 s

Time = 0.6023

Courant Number mean: 0.118466 max: 0.320449
smoothSolver:  Solving for Ux, Initial residual = 3.7812e-05, Final residual = 7.35291e-08, No Iterations 1
smoothSolver:  Solving for Uz, Initial residual = 3.46126e-05, Final residual = 8.07346e-08, No Iterations 1
DICPCG:  Solving for p, Initial residual = 0.000289003, Final residual = 1.3546e-05, No Iterations 12
time step continuity errors : sum local = 2.86928e-11, global = -1.201e-13, cumulative = -1.47449e-07
DICPCG:  Solving for p, Initial residual = 5.95336e-05, Final residual = 9.5519e-07, No Iterations 429
time step continuity errors : sum local = 2.02322e-12, global = 3.89139e-14, cumulative = -1.47449e-07
ExecutionTime = 36.6 s  ClockTime = 37 s

Time = 0.6024

Courant Number mean: 0.118466 max: 0.320446
smoothSolver:  Solving for Ux, Initial residual = 3.77988e-05, Final residual = 7.34953e-08, No Iterations 1
smoothSolver:  Solving for Uz, Initial residual = 3.45956e-05, Final residual = 8.06687e-08, No Iterations 1
DICPCG:  Solving for p, Initial residual = 0.000282193, Final residual = 1.03008e-05, No Iterations 12
time step continuity errors : sum local = 2.18166e-11, global = 4.11626e-13, cumulative = -1.47449e-07
DICPCG:  Solving for p, Initial residual = 5.65916e-05, Final residual = 9.72913e-07, No Iterations 199
time step continuity errors : sum local = 2.06056e-12, global = 6.35129e-14, cumulative = -1.47449e-07
ExecutionTime = 37.74 s  ClockTime = 38 s

Time = 0.6025

Courant Number mean: 0.118466 max: 0.320442
smoothSolver:  Solving for Ux, Initial residual = 3.77804e-05, Final residual = 7.34629e-08, No Iterations 1
smoothSolver:  Solving for Uz, Initial residual = 3.45803e-05, Final residual = 8.06265e-08, No Iterations 1
DICPCG:  Solving for p, Initial residual = 0.000276669, Final residual = 1.2687e-05, No Iterations 12
time step continuity errors : sum local = 2.68698e-11, global = 2.15569e-13, cumulative = -1.47449e-07
DICPCG:  Solving for p, Initial residual = 5.7861e-05, Final residual = 9.69368e-07, No Iterations 222
time step continuity errors : sum local = 2.05299e-12, global = 7.23102e-14, cumulative = -1.47448e-07
ExecutionTime = 39 s  ClockTime = 39 s

Time = 0.6026

Courant Number mean: 0.118466 max: 0.320438
smoothSolver:  Solving for Ux, Initial residual = 3.77626e-05, Final residual = 7.34236e-08, No Iterations 1
smoothSolver:  Solving for Uz, Initial residual = 3.45648e-05, Final residual = 8.05703e-08, No Iterations 1
DICPCG:  Solving for p, Initial residual = 0.00027149, Final residual = 1.02423e-05, No Iterations 12
time step continuity errors : sum local = 2.16918e-11, global = 2.30067e-13, cumulative = -1.47448e-07
DICPCG:  Solving for p, Initial residual = 5.58055e-05, Final residual = 9.74209e-07, No Iterations 181
time step continuity errors : sum local = 2.06322e-12, global = 1.26983e-14, cumulative = -1.47448e-07
ExecutionTime = 40.05 s  ClockTime = 40 s

Time = 0.6027

Courant Number mean: 0.118466 max: 0.320435
smoothSolver:  Solving for Ux, Initial residual = 3.77443e-05, Final residual = 7.33933e-08, No Iterations 1
smoothSolver:  Solving for Uz, Initial residual = 3.45486e-05, Final residual = 8.0527e-08, No Iterations 1
DICPCG:  Solving for p, Initial residual = 0.000267392, Final residual = 1.31665e-05, No Iterations 12
time step continuity errors : sum local = 2.78842e-11, global = 8.68742e-14, cumulative = -1.47448e-07
DICPCG:  Solving for p, Initial residual = 5.76545e-05, Final residual = 9.62414e-07, No Iterations 222
time step continuity errors : sum local = 2.03819e-12, global = -9.28003e-14, cumulative = -1.47448e-07
ExecutionTime = 41.31 s  ClockTime = 41 s

Time = 0.6028

Courant Number mean: 0.118466 max: 0.320431
smoothSolver:  Solving for Ux, Initial residual = 3.77271e-05, Final residual = 7.33535e-08, No Iterations 1
smoothSolver:  Solving for Uz, Initial residual = 3.45335e-05, Final residual = 8.04697e-08, No Iterations 1
DICPCG:  Solving for p, Initial residual = 0.000263441, Final residual = 1.00522e-05, No Iterations 12
time step continuity errors : sum local = 2.12884e-11, global = -5.36934e-14, cumulative = -1.47448e-07
DICPCG:  Solving for p, Initial residual = 5.51114e-05, Final residual = 9.92472e-07, No Iterations 236
time step continuity errors : sum local = 2.10182e-12, global = -1.9017e-13, cumulative = -1.47448e-07
ExecutionTime = 42.64 s  ClockTime = 43 s

Time = 0.6029

Courant Number mean: 0.118466 max: 0.320427
smoothSolver:  Solving for Ux, Initial residual = 3.77103e-05, Final residual = 7.33264e-08, No Iterations 1
smoothSolver:  Solving for Uz, Initial residual = 3.45187e-05, Final residual = 8.04346e-08, No Iterations 1
DICPCG:  Solving for p, Initial residual = 0.000260393, Final residual = 1.22063e-05, No Iterations 15
time step continuity errors : sum local = 2.58493e-11, global = -1.44592e-13, cumulative = -1.47449e-07
DICPCG:  Solving for p, Initial residual = 5.74821e-05, Final residual = 9.97951e-07, No Iterations 426
time step continuity errors : sum local = 2.11334e-12, global = 3.5875e-14, cumulative = -1.47449e-07
ExecutionTime = 44.92 s  ClockTime = 45 s

Time = 0.603

Courant Number mean: 0.118466 max: 0.320424
smoothSolver:  Solving for Ux, Initial residual = 3.76973e-05, Final residual = 7.32948e-08, No Iterations 1
smoothSolver:  Solving for Uz, Initial residual = 3.45023e-05, Final residual = 8.03715e-08, No Iterations 1
DICPCG:  Solving for p, Initial residual = 0.000257287, Final residual = 9.85457e-06, No Iterations 12
time step continuity errors : sum local = 2.08672e-11, global = 4.35876e-13, cumulative = -1.47448e-07
DICPCG:  Solving for p, Initial residual = 5.46604e-05, Final residual = 9.92653e-07, No Iterations 204
time step continuity errors : sum local = 2.10194e-12, global = 8.23307e-14, cumulative = -1.47448e-07
ExecutionTime = 46.08 s  ClockTime = 46 s

Time = 0.6031

Courant Number mean: 0.118466 max: 0.32042
smoothSolver:  Solving for Ux, Initial residual = 3.76793e-05, Final residual = 7.32643e-08, No Iterations 1
smoothSolver:  Solving for Uz, Initial residual = 3.4487e-05, Final residual = 8.03309e-08, No Iterations 1
DICPCG:  Solving for p, Initial residual = 0.000255075, Final residual = 1.25681e-05, No Iterations 12
time step continuity errors : sum local = 2.66128e-11, global = 2.52794e-13, cumulative = -1.47448e-07
DICPCG:  Solving for p, Initial residual = 5.66105e-05, Final residual = 9.90032e-07, No Iterations 222
time step continuity errors : sum local = 2.09636e-12, global = 1.05354e-13, cumulative = -1.47448e-07
ExecutionTime = 47.34 s  ClockTime = 47 s

Time = 0.6032

Courant Number mean: 0.118466 max: 0.320417
smoothSolver:  Solving for Ux, Initial residual = 3.76617e-05, Final residual = 7.32269e-08, No Iterations 1
smoothSolver:  Solving for Uz, Initial residual = 3.44717e-05, Final residual = 8.0277e-08, No Iterations 1
DICPCG:  Solving for p, Initial residual = 0.000252767, Final residual = 9.91148e-06, No Iterations 12
time step continuity errors : sum local = 2.09874e-11, global = 2.74775e-13, cumulative = -1.47447e-07
DICPCG:  Solving for p, Initial residual = 5.44345e-05, Final residual = 9.92673e-07, No Iterations 178
time step continuity errors : sum local = 2.10196e-12, global = 4.73896e-14, cumulative = -1.47447e-07
ExecutionTime = 48.37 s  ClockTime = 48 s

Time = 0.6033

Courant Number mean: 0.118466 max: 0.320413
smoothSolver:  Solving for Ux, Initial residual = 3.76436e-05, Final residual = 7.31975e-08, No Iterations 1
smoothSolver:  Solving for Uz, Initial residual = 3.44557e-05, Final residual = 8.02348e-08, No Iterations 1
DICPCG:  Solving for p, Initial residual = 0.000251061, Final residual = 1.24041e-05, No Iterations 12
time step continuity errors : sum local = 2.62652e-11, global = 1.20857e-13, cumulative = -1.47447e-07
DICPCG:  Solving for p, Initial residual = 5.61898e-05, Final residual = 9.96223e-07, No Iterations 220
time step continuity errors : sum local = 2.10945e-12, global = -6.07017e-14, cumulative = -1.47447e-07
ExecutionTime = 49.61 s  ClockTime = 50 s

Time = 0.6034

Courant Number mean: 0.118466 max: 0.320409
smoothSolver:  Solving for Ux, Initial residual = 3.76265e-05, Final residual = 7.31587e-08, No Iterations 1
smoothSolver:  Solving for Uz, Initial residual = 3.44411e-05, Final residual = 8.018e-08, No Iterations 1
DICPCG:  Solving for p, Initial residual = 0.000249226, Final residual = 9.76277e-06, No Iterations 12
time step continuity errors : sum local = 2.06721e-11, global = -2.7327e-14, cumulative = -1.47447e-07
DICPCG:  Solving for p, Initial residual = 5.41897e-05, Final residual = 9.95608e-07, No Iterations 226
time step continuity errors : sum local = 2.10813e-12, global = -1.64803e-13, cumulative = -1.47448e-07
ExecutionTime = 50.89 s  ClockTime = 51 s

Time = 0.6035

Courant Number mean: 0.118466 max: 0.320406
smoothSolver:  Solving for Ux, Initial residual = 3.76097e-05, Final residual = 7.31324e-08, No Iterations 1
smoothSolver:  Solving for Uz, Initial residual = 3.44265e-05, Final residual = 8.01463e-08, No Iterations 1
DICPCG:  Solving for p, Initial residual = 0.000248095, Final residual = 1.178e-05, No Iterations 15
time step continuity errors : sum local = 2.49428e-11, global = -1.37829e-13, cumulative = -1.47448e-07
DICPCG:  Solving for p, Initial residual = 5.65828e-05, Final residual = 9.82781e-07, No Iterations 428
time step continuity errors : sum local = 2.08091e-12, global = 3.63915e-14, cumulative = -1.47448e-07
ExecutionTime = 53.19 s  ClockTime = 53 s

Time = 0.6036

Courant Number mean: 0.118466 max: 0.320402
smoothSolver:  Solving for Ux, Initial residual = 3.75971e-05, Final residual = 7.31016e-08, No Iterations 1
smoothSolver:  Solving for Uz, Initial residual = 3.44103e-05, Final residual = 8.00856e-08, No Iterations 1
DICPCG:  Solving for p, Initial residual = 0.000246762, Final residual = 1.01761e-05, No Iterations 12
time step continuity errors : sum local = 2.15449e-11, global = 4.16576e-13, cumulative = -1.47447e-07
DICPCG:  Solving for p, Initial residual = 5.47956e-05, Final residual = 9.78671e-07, No Iterations 199
time step continuity errors : sum local = 2.07204e-12, global = 7.13294e-14, cumulative = -1.47447e-07
ExecutionTime = 54.33 s  ClockTime = 54 s

Time = 0.6037

Courant Number mean: 0.118466 max: 0.320398
smoothSolver:  Solving for Ux, Initial residual = 3.75793e-05, Final residual = 7.30721e-08, No Iterations 1
smoothSolver:  Solving for Uz, Initial residual = 3.43953e-05, Final residual = 8.00465e-08, No Iterations 1
DICPCG:  Solving for p, Initial residual = 0.000245696, Final residual = 1.20925e-05, No Iterations 15
time step continuity errors : sum local = 2.56022e-11, global = 2.21802e-13, cumulative = -1.47447e-07
DICPCG:  Solving for p, Initial residual = 5.68356e-05, Final residual = 9.89609e-07, No Iterations 221
time step continuity errors : sum local = 2.09518e-12, global = 8.50152e-14, cumulative = -1.47447e-07
ExecutionTime = 55.59 s  ClockTime = 56 s

Time = 0.6038

Courant Number mean: 0.118465 max: 0.320395
smoothSolver:  Solving for Ux, Initial residual = 3.75619e-05, Final residual = 7.30348e-08, No Iterations 1
smoothSolver:  Solving for Uz, Initial residual = 3.43808e-05, Final residual = 7.99956e-08, No Iterations 1
DICPCG:  Solving for p, Initial residual = 0.000244454, Final residual = 9.39642e-06, No Iterations 12
time step continuity errors : sum local = 1.98941e-11, global = 2.43684e-13, cumulative = -1.47447e-07
DICPCG:  Solving for p, Initial residual = 5.38594e-05, Final residual = 9.80825e-07, No Iterations 177
time step continuity errors : sum local = 2.07659e-12, global = 2.52864e-14, cumulative = -1.47447e-07
ExecutionTime = 56.61 s  ClockTime = 57 s

Time = 0.6039

Courant Number mean: 0.118465 max: 0.320391
smoothSolver:  Solving for Ux, Initial residual = 3.75442e-05, Final residual = 7.30069e-08, No Iterations 1
smoothSolver:  Solving for Uz, Initial residual = 3.43644e-05, Final residual = 7.99534e-08, No Iterations 1
DICPCG:  Solving for p, Initial residual = 0.000243826, Final residual = 1.16842e-05, No Iterations 12
time step continuity errors : sum local = 2.47376e-11, global = 9.74024e-14, cumulative = -1.47446e-07
DICPCG:  Solving for p, Initial residual = 5.54303e-05, Final residual = 9.99238e-07, No Iterations 220
time step continuity errors : sum local = 2.11555e-12, global = -8.24431e-14, cumulative = -1.47447e-07
ExecutionTime = 57.86 s  ClockTime = 58 s

Time = 0.604

Courant Number mean: 0.118465 max: 0.320388
smoothSolver:  Solving for Ux, Initial residual = 3.75272e-05, Final residual = 7.29685e-08, No Iterations 1
smoothSolver:  Solving for Uz, Initial residual = 3.43503e-05, Final residual = 7.98997e-08, No Iterations 1
DICPCG:  Solving for p, Initial residual = 0.000242906, Final residual = 9.8104e-06, No Iterations 12
time step continuity errors : sum local = 2.07702e-11, global = -4.84416e-14, cumulative = -1.47447e-07
DICPCG:  Solving for p, Initial residual = 5.42295e-05, Final residual = 9.99761e-07, No Iterations 232
time step continuity errors : sum local = 2.11665e-12, global = -1.81002e-13, cumulative = -1.47447e-07
ExecutionTime = 59.15 s  ClockTime = 59 s

Time = 0.6041

Courant Number mean: 0.118465 max: 0.320384
smoothSolver:  Solving for Ux, Initial residual = 3.75108e-05, Final residual = 7.29429e-08, No Iterations 1
smoothSolver:  Solving for Uz, Initial residual = 3.43359e-05, Final residual = 7.98684e-08, No Iterations 1
DICPCG:  Solving for p, Initial residual = 0.000242386, Final residual = 1.15244e-05, No Iterations 15
time step continuity errors : sum local = 2.43985e-11, global = -1.45953e-13, cumulative = -1.47447e-07
DICPCG:  Solving for p, Initial residual = 5.62874e-05, Final residual = 9.94761e-07, No Iterations 426
time step continuity errors : sum local = 2.10601e-12, global = 3.52203e-14, cumulative = -1.47447e-07
ExecutionTime = 61.44 s  ClockTime = 62 s

Time = 0.6042

Courant Number mean: 0.118465 max: 0.32038
smoothSolver:  Solving for Ux, Initial residual = 3.74983e-05, Final residual = 7.29127e-08, No Iterations 1
smoothSolver:  Solving for Uz, Initial residual = 3.432e-05, Final residual = 7.98068e-08, No Iterations 1
DICPCG:  Solving for p, Initial residual = 0.000241545, Final residual = 9.56547e-06, No Iterations 12
time step continuity errors : sum local = 2.02496e-11, global = 4.26307e-13, cumulative = -1.47446e-07
DICPCG:  Solving for p, Initial residual = 5.4031e-05, Final residual = 9.98356e-07, No Iterations 200
time step continuity errors : sum local = 2.11345e-12, global = 7.94516e-14, cumulative = -1.47446e-07
ExecutionTime = 62.6 s  ClockTime = 63 s

Time = 0.6043

Courant Number mean: 0.118465 max: 0.320377
smoothSolver:  Solving for Ux, Initial residual = 3.74806e-05, Final residual = 7.28834e-08, No Iterations 1
smoothSolver:  Solving for Uz, Initial residual = 3.43054e-05, Final residual = 7.97696e-08, No Iterations 1
DICPCG:  Solving for p, Initial residual = 0.000241312, Final residual = 1.17475e-05, No Iterations 15
time step continuity errors : sum local = 2.48688e-11, global = 2.38895e-13, cumulative = -1.47446e-07
DICPCG:  Solving for p, Initial residual = 5.64673e-05, Final residual = 9.80785e-07, No Iterations 221
time step continuity errors : sum local = 2.07625e-12, global = 1.01409e-13, cumulative = -1.47446e-07
ExecutionTime = 63.86 s  ClockTime = 64 s

Time = 0.6044

Courant Number mean: 0.118465 max: 0.320373
smoothSolver:  Solving for Ux, Initial residual = 3.74633e-05, Final residual = 7.28467e-08, No Iterations 1
smoothSolver:  Solving for Uz, Initial residual = 3.42912e-05, Final residual = 7.97194e-08, No Iterations 1
DICPCG:  Solving for p, Initial residual = 0.000240602, Final residual = 1.1909e-05, No Iterations 11
time step continuity errors : sum local = 2.52106e-11, global = 2.45998e-13, cumulative = -1.47446e-07
DICPCG:  Solving for p, Initial residual = 5.65229e-05, Final residual = 9.98852e-07, No Iterations 159
time step continuity errors : sum local = 2.11451e-12, global = 4.07875e-14, cumulative = -1.47446e-07
ExecutionTime = 64.8 s  ClockTime = 65 s

Time = 0.6045

Courant Number mean: 0.118465 max: 0.320369
smoothSolver:  Solving for Ux, Initial residual = 3.74456e-05, Final residual = 7.28192e-08, No Iterations 1
smoothSolver:  Solving for Uz, Initial residual = 3.42751e-05, Final residual = 7.96774e-08, No Iterations 1
DICPCG:  Solving for p, Initial residual = 0.000240587, Final residual = 1.17029e-05, No Iterations 12
time step continuity errors : sum local = 2.47743e-11, global = 1.10644e-13, cumulative = -1.47446e-07
DICPCG:  Solving for p, Initial residual = 5.54215e-05, Final residual = 9.95438e-07, No Iterations 220
time step continuity errors : sum local = 2.10726e-12, global = -6.57393e-14, cumulative = -1.47446e-07
ExecutionTime = 66.04 s  ClockTime = 66 s

Time = 0.6046

Courant Number mean: 0.118465 max: 0.320366
smoothSolver:  Solving for Ux, Initial residual = 3.74288e-05, Final residual = 7.27806e-08, No Iterations 1
smoothSolver:  Solving for Uz, Initial residual = 3.42618e-05, Final residual = 7.96258e-08, No Iterations 1
DICPCG:  Solving for p, Initial residual = 0.000239949, Final residual = 9.31466e-06, No Iterations 12
time step continuity errors : sum local = 1.97184e-11, global = -3.43971e-14, cumulative = -1.47446e-07
DICPCG:  Solving for p, Initial residual = 5.36856e-05, Final residual = 9.85978e-07, No Iterations 229
time step continuity errors : sum local = 2.08723e-12, global = -1.61182e-13, cumulative = -1.47446e-07
ExecutionTime = 67.33 s  ClockTime = 67 s

Time = 0.6047

Courant Number mean: 0.118465 max: 0.320362
smoothSolver:  Solving for Ux, Initial residual = 3.74125e-05, Final residual = 7.2756e-08, No Iterations 1
smoothSolver:  Solving for Uz, Initial residual = 3.42481e-05, Final residual = 7.95965e-08, No Iterations 1
DICPCG:  Solving for p, Initial residual = 0.000239651, Final residual = 1.14024e-05, No Iterations 15
time step continuity errors : sum local = 2.41376e-11, global = -1.26634e-13, cumulative = -1.47446e-07
DICPCG:  Solving for p, Initial residual = 5.61724e-05, Final residual = 9.79854e-07, No Iterations 427
time step continuity errors : sum local = 2.07422e-12, global = 3.28491e-14, cumulative = -1.47446e-07
ExecutionTime = 69.62 s  ClockTime = 70 s

Time = 0.6048

Courant Number mean: 0.118465 max: 0.320359
smoothSolver:  Solving for Ux, Initial residual = 3.74e-05, Final residual = 7.27255e-08, No Iterations 1
smoothSolver:  Solving for Uz, Initial residual = 3.42321e-05, Final residual = 7.95343e-08, No Iterations 1
DICPCG:  Solving for p, Initial residual = 0.000238821, Final residual = 9.28687e-06, No Iterations 12
time step continuity errors : sum local = 1.96577e-11, global = 3.99143e-13, cumulative = -1.47446e-07
DICPCG:  Solving for p, Initial residual = 5.38186e-05, Final residual = 9.8989e-07, No Iterations 204
time step continuity errors : sum local = 2.09531e-12, global = 7.04744e-14, cumulative = -1.47446e-07
ExecutionTime = 70.78 s  ClockTime = 71 s

Time = 0.6049

Courant Number mean: 0.118465 max: 0.320355
smoothSolver:  Solving for Ux, Initial residual = 3.73826e-05, Final residual = 7.26973e-08, No Iterations 1
smoothSolver:  Solving for Uz, Initial residual = 3.42181e-05, Final residual = 7.9499e-08, No Iterations 1
DICPCG:  Solving for p, Initial residual = 0.000239287, Final residual = 1.14342e-05, No Iterations 15
time step continuity errors : sum local = 2.42028e-11, global = 2.22794e-13, cumulative = -1.47445e-07
DICPCG:  Solving for p, Initial residual = 5.63457e-05, Final residual = 9.83007e-07, No Iterations 221
time step continuity errors : sum local = 2.08073e-12, global = 8.4351e-14, cumulative = -1.47445e-07
ExecutionTime = 72.05 s  ClockTime = 72 s

Time = 0.605

Courant Number mean: 0.118465 max: 0.320352
smoothSolver:  Solving for Ux, Initial residual = 3.73656e-05, Final residual = 7.26614e-08, No Iterations 1
smoothSolver:  Solving for Uz, Initial residual = 3.4204e-05, Final residual = 7.94488e-08, No Iterations 1
DICPCG:  Solving for p, Initial residual = 0.000238077, Final residual = 9.34236e-06, No Iterations 12
time step continuity errors : sum local = 1.97752e-11, global = 2.4204e-13, cumulative = -1.47445e-07
DICPCG:  Solving for p, Initial residual = 5.38889e-05, Final residual = 9.92512e-07, No Iterations 177
time step continuity errors : sum local = 2.10087e-12, global = 2.12795e-14, cumulative = -1.47445e-07
ExecutionTime = 73.08 s  ClockTime = 73 s

Time = 0.6051

Courant Number mean: 0.118465 max: 0.320348
smoothSolver:  Solving for Ux, Initial residual = 3.73481e-05, Final residual = 7.2634e-08, No Iterations 1
smoothSolver:  Solving for Uz, Initial residual = 3.41887e-05, Final residual = 7.94091e-08, No Iterations 1
DICPCG:  Solving for p, Initial residual = 0.000238182, Final residual = 1.13643e-05, No Iterations 15
time step continuity errors : sum local = 2.40549e-11, global = 8.11272e-14, cumulative = -1.47445e-07
DICPCG:  Solving for p, Initial residual = 5.61464e-05, Final residual = 9.7867e-07, No Iterations 220
time step continuity errors : sum local = 2.07155e-12, global = -8.51326e-14, cumulative = -1.47445e-07
ExecutionTime = 74.34 s  ClockTime = 74 s

Time = 0.6052

Courant Number mean: 0.118464 max: 0.320344
smoothSolver:  Solving for Ux, Initial residual = 3.73315e-05, Final residual = 7.25963e-08, No Iterations 1
smoothSolver:  Solving for Uz, Initial residual = 3.41756e-05, Final residual = 7.93591e-08, No Iterations 1
DICPCG:  Solving for p, Initial residual = 0.000237606, Final residual = 1.02129e-05, No Iterations 12
time step continuity errors : sum local = 2.16177e-11, global = -5.08616e-14, cumulative = -1.47445e-07
DICPCG:  Solving for p, Initial residual = 5.48221e-05, Final residual = 9.82223e-07, No Iterations 236
time step continuity errors : sum local = 2.07907e-12, global = -1.87342e-13, cumulative = -1.47445e-07
ExecutionTime = 75.66 s  ClockTime = 76 s

Time = 0.6053

Courant Number mean: 0.118464 max: 0.320341
smoothSolver:  Solving for Ux, Initial residual = 3.73154e-05, Final residual = 7.25718e-08, No Iterations 1
smoothSolver:  Solving for Uz, Initial residual = 3.41614e-05, Final residual = 7.93273e-08, No Iterations 1
DICPCG:  Solving for p, Initial residual = 0.000237624, Final residual = 1.08959e-05, No Iterations 15
time step continuity errors : sum local = 2.3063e-11, global = -1.51135e-13, cumulative = -1.47445e-07
DICPCG:  Solving for p, Initial residual = 5.57265e-05, Final residual = 9.89482e-07, No Iterations 426
time step continuity errors : sum local = 2.09439e-12, global = 3.53841e-14, cumulative = -1.47445e-07
ExecutionTime = 77.95 s  ClockTime = 78 s

Time = 0.6054

Courant Number mean: 0.118464 max: 0.320337
smoothSolver:  Solving for Ux, Initial residual = 3.73032e-05, Final residual = 7.25423e-08, No Iterations 1
smoothSolver:  Solving for Uz, Initial residual = 3.41464e-05, Final residual = 7.92688e-08, No Iterations 1
DICPCG:  Solving for p, Initial residual = 0.000237284, Final residual = 9.99304e-06, No Iterations 12
time step continuity errors : sum local = 2.11502e-11, global = 4.29575e-13, cumulative = -1.47445e-07
DICPCG:  Solving for p, Initial residual = 5.46277e-05, Final residual = 9.95999e-07, No Iterations 203
time step continuity errors : sum local = 2.10802e-12, global = 8.04137e-14, cumulative = -1.47445e-07
ExecutionTime = 79.11 s  ClockTime = 79 s

Time = 0.6055

Courant Number mean: 0.118464 max: 0.320334
smoothSolver:  Solving for Ux, Initial residual = 3.72858e-05, Final residual = 7.25137e-08, No Iterations 1
smoothSolver:  Solving for Uz, Initial residual = 3.41324e-05, Final residual = 7.92338e-08, No Iterations 1
DICPCG:  Solving for p, Initial residual = 0.000237034, Final residual = 1.13129e-05, No Iterations 15
time step continuity errors : sum local = 2.39436e-11, global = 2.37731e-13, cumulative = -1.47445e-07
DICPCG:  Solving for p, Initial residual = 5.61082e-05, Final residual = 9.59618e-07, No Iterations 222
time step continuity errors : sum local = 2.03101e-12, global = 1.02923e-13, cumulative = -1.47444e-07
ExecutionTime = 80.38 s  ClockTime = 80 s

Time = 0.6056

Courant Number mean: 0.118464 max: 0.32033
smoothSolver:  Solving for Ux, Initial residual = 3.72688e-05, Final residual = 7.24778e-08, No Iterations 1
smoothSolver:  Solving for Uz, Initial residual = 3.41186e-05, Final residual = 7.91854e-08, No Iterations 1
DICPCG:  Solving for p, Initial residual = 0.000236569, Final residual = 9.62671e-06, No Iterations 12
time step continuity errors : sum local = 2.0375e-11, global = 2.68993e-13, cumulative = -1.47444e-07
DICPCG:  Solving for p, Initial residual = 5.42371e-05, Final residual = 9.95147e-07, No Iterations 159
time step continuity errors : sum local = 2.10623e-12, global = 4.04198e-14, cumulative = -1.47444e-07
ExecutionTime = 81.32 s  ClockTime = 81 s

Time = 0.6057

Courant Number mean: 0.118464 max: 0.320327
smoothSolver:  Solving for Ux, Initial residual = 3.72514e-05, Final residual = 7.24507e-08, No Iterations 1
smoothSolver:  Solving for Uz, Initial residual = 3.41032e-05, Final residual = 7.91452e-08, No Iterations 1
DICPCG:  Solving for p, Initial residual = 0.000236576, Final residual = 1.14389e-05, No Iterations 12
time step continuity errors : sum local = 2.42104e-11, global = 1.09442e-13, cumulative = -1.47444e-07
DICPCG:  Solving for p, Initial residual = 5.53344e-05, Final residual = 9.91552e-07, No Iterations 220
time step continuity errors : sum local = 2.09861e-12, global = -6.71498e-14, cumulative = -1.47444e-07
ExecutionTime = 82.56 s  ClockTime = 83 s

Time = 0.6058

Courant Number mean: 0.118464 max: 0.320323
smoothSolver:  Solving for Ux, Initial residual = 3.72348e-05, Final residual = 7.24128e-08, No Iterations 1
smoothSolver:  Solving for Uz, Initial residual = 3.40904e-05, Final residual = 7.90957e-08, No Iterations 1
DICPCG:  Solving for p, Initial residual = 0.000236432, Final residual = 9.40254e-06, No Iterations 12
time step continuity errors : sum local = 1.99004e-11, global = -3.70595e-14, cumulative = -1.47444e-07
DICPCG:  Solving for p, Initial residual = 5.39015e-05, Final residual = 9.84848e-07, No Iterations 230
time step continuity errors : sum local = 2.08442e-12, global = -1.63648e-13, cumulative = -1.47444e-07
ExecutionTime = 83.86 s  ClockTime = 84 s

Time = 0.6059

Courant Number mean: 0.118464 max: 0.320319
smoothSolver:  Solving for Ux, Initial residual = 3.72188e-05, Final residual = 7.23887e-08, No Iterations 1
smoothSolver:  Solving for Uz, Initial residual = 3.40771e-05, Final residual = 7.90676e-08, No Iterations 1
DICPCG:  Solving for p, Initial residual = 0.000236115, Final residual = 1.16441e-05, No Iterations 13
time step continuity errors : sum local = 2.46442e-11, global = -1.36728e-13, cumulative = -1.47444e-07
DICPCG:  Solving for p, Initial residual = 5.59529e-05, Final residual = 9.97003e-07, No Iterations 426
time step continuity errors : sum local = 2.1101e-12, global = 3.30819e-14, cumulative = -1.47444e-07
ExecutionTime = 86.13 s  ClockTime = 86 s

Time = 0.606

Courant Number mean: 0.118464 max: 0.320316
smoothSolver:  Solving for Ux, Initial residual = 3.72066e-05, Final residual = 7.2359e-08, No Iterations 1
smoothSolver:  Solving for Uz, Initial residual = 3.40613e-05, Final residual = 7.90066e-08, No Iterations 1
DICPCG:  Solving for p, Initial residual = 0.000236132, Final residual = 9.43789e-06, No Iterations 12
time step continuity errors : sum local = 1.99733e-11, global = 3.99165e-13, cumulative = -1.47444e-07
DICPCG:  Solving for p, Initial residual = 5.40094e-05, Final residual = 9.98141e-07, No Iterations 200
time step continuity errors : sum local = 2.11235e-12, global = 7.02326e-14, cumulative = -1.47444e-07
ExecutionTime = 87.28 s  ClockTime = 87 s

Time = 0.6061

Courant Number mean: 0.118464 max: 0.320312
smoothSolver:  Solving for Ux, Initial residual = 3.71894e-05, Final residual = 7.23308e-08, No Iterations 1
smoothSolver:  Solving for Uz, Initial residual = 3.4048e-05, Final residual = 7.89731e-08, No Iterations 1
DICPCG:  Solving for p, Initial residual = 0.000236092, Final residual = 1.11671e-05, No Iterations 15
time step continuity errors : sum local = 2.36327e-11, global = 2.22453e-13, cumulative = -1.47444e-07
DICPCG:  Solving for p, Initial residual = 5.60154e-05, Final residual = 9.96948e-07, No Iterations 220
time step continuity errors : sum local = 2.10982e-12, global = 8.57473e-14, cumulative = -1.47444e-07
ExecutionTime = 88.54 s  ClockTime = 89 s

Time = 0.6062

Courant Number mean: 0.118464 max: 0.320309
smoothSolver:  Solving for Ux, Initial residual = 3.71725e-05, Final residual = 7.2295e-08, No Iterations 1
smoothSolver:  Solving for Uz, Initial residual = 3.40346e-05, Final residual = 7.89255e-08, No Iterations 1
DICPCG:  Solving for p, Initial residual = 0.000235902, Final residual = 1.14295e-05, No Iterations 11
time step continuity errors : sum local = 2.41882e-11, global = 2.1866e-13, cumulative = -1.47443e-07
DICPCG:  Solving for p, Initial residual = 5.61963e-05, Final residual = 9.71815e-07, No Iterations 177
time step continuity errors : sum local = 2.05665e-12, global = 2.3942e-14, cumulative = -1.47443e-07
ExecutionTime = 89.55 s  ClockTime = 90 s

Time = 0.6063

Courant Number mean: 0.118464 max: 0.320305
smoothSolver:  Solving for Ux, Initial residual = 3.71553e-05, Final residual = 7.22681e-08, No Iterations 1
smoothSolver:  Solving for Uz, Initial residual = 3.40195e-05, Final residual = 7.88864e-08, No Iterations 1
DICPCG:  Solving for p, Initial residual = 0.000235888, Final residual = 1.09582e-05, No Iterations 12
time step continuity errors : sum local = 2.31909e-11, global = 9.09609e-14, cumulative = -1.47443e-07
DICPCG:  Solving for p, Initial residual = 5.49022e-05, Final residual = 9.91509e-07, No Iterations 220
time step continuity errors : sum local = 2.09832e-12, global = -8.50703e-14, cumulative = -1.47443e-07
ExecutionTime = 90.8 s  ClockTime = 91 s

Time = 0.6064

Courant Number mean: 0.118464 max: 0.320302
smoothSolver:  Solving for Ux, Initial residual = 3.71389e-05, Final residual = 7.2231e-08, No Iterations 1
smoothSolver:  Solving for Uz, Initial residual = 3.40066e-05, Final residual = 7.88367e-08, No Iterations 1
DICPCG:  Solving for p, Initial residual = 0.000235819, Final residual = 9.27019e-06, No Iterations 12
time step continuity errors : sum local = 1.96184e-11, global = -5.59149e-14, cumulative = -1.47443e-07
DICPCG:  Solving for p, Initial residual = 5.38452e-05, Final residual = 9.77005e-07, No Iterations 236
time step continuity errors : sum local = 2.06762e-12, global = -1.87451e-13, cumulative = -1.47444e-07
ExecutionTime = 92.12 s  ClockTime = 92 s

Time = 0.6065

Courant Number mean: 0.118464 max: 0.320298
smoothSolver:  Solving for Ux, Initial residual = 3.71231e-05, Final residual = 7.22067e-08, No Iterations 1
smoothSolver:  Solving for Uz, Initial residual = 3.39936e-05, Final residual = 7.88081e-08, No Iterations 1
DICPCG:  Solving for p, Initial residual = 0.000235655, Final residual = 1.13316e-05, No Iterations 13
time step continuity errors : sum local = 2.39805e-11, global = -1.606e-13, cumulative = -1.47444e-07
DICPCG:  Solving for p, Initial residual = 5.57282e-05, Final residual = 9.89162e-07, No Iterations 425
time step continuity errors : sum local = 2.0933e-12, global = 3.42217e-14, cumulative = -1.47444e-07
ExecutionTime = 94.4 s  ClockTime = 94 s

Time = 0.6066

Courant Number mean: 0.118464 max: 0.320295
smoothSolver:  Solving for Ux, Initial residual = 3.71111e-05, Final residual = 7.21779e-08, No Iterations 1
smoothSolver:  Solving for Uz, Initial residual = 3.39787e-05, Final residual = 7.87492e-08, No Iterations 1
DICPCG:  Solving for p, Initial residual = 0.000235606, Final residual = 9.1015e-06, No Iterations 12
time step continuity errors : sum local = 1.92595e-11, global = 4.2283e-13, cumulative = -1.47443e-07
DICPCG:  Solving for p, Initial residual = 5.37549e-05, Final residual = 9.98015e-07, No Iterations 200
time step continuity errors : sum local = 2.11188e-12, global = 7.9825e-14, cumulative = -1.47443e-07
ExecutionTime = 95.55 s  ClockTime = 96 s

Time = 0.6067

Courant Number mean: 0.118463 max: 0.320291
smoothSolver:  Solving for Ux, Initial residual = 3.70939e-05, Final residual = 7.21495e-08, No Iterations 1
smoothSolver:  Solving for Uz, Initial residual = 3.39657e-05, Final residual = 7.87159e-08, No Iterations 1
DICPCG:  Solving for p, Initial residual = 0.000235669, Final residual = 1.14955e-05, No Iterations 13
time step continuity errors : sum local = 2.43254e-11, global = 2.32098e-13, cumulative = -1.47443e-07
DICPCG:  Solving for p, Initial residual = 5.5876e-05, Final residual = 9.85486e-07, No Iterations 221
time step continuity errors : sum local = 2.08536e-12, global = 1.03308e-13, cumulative = -1.47443e-07
ExecutionTime = 96.81 s  ClockTime = 97 s

Time = 0.6068

Courant Number mean: 0.118463 max: 0.320288
smoothSolver:  Solving for Ux, Initial residual = 3.70772e-05, Final residual = 7.21143e-08, No Iterations 1
smoothSolver:  Solving for Uz, Initial residual = 3.39524e-05, Final residual = 7.86685e-08, No Iterations 1
DICPCG:  Solving for p, Initial residual = 0.000235585, Final residual = 8.5995e-06, No Iterations 12
time step continuity errors : sum local = 1.81974e-11, global = 2.66639e-13, cumulative = -1.47443e-07
DICPCG:  Solving for p, Initial residual = 5.32794e-05, Final residual = 9.90646e-07, No Iterations 159
time step continuity errors : sum local = 2.09631e-12, global = 4.1758e-14, cumulative = -1.47443e-07
ExecutionTime = 97.75 s  ClockTime = 98 s

Time = 0.6069

Courant Number mean: 0.118463 max: 0.320284
smoothSolver:  Solving for Ux, Initial residual = 3.706e-05, Final residual = 7.20874e-08, No Iterations 1
smoothSolver:  Solving for Uz, Initial residual = 3.39378e-05, Final residual = 7.86301e-08, No Iterations 1
DICPCG:  Solving for p, Initial residual = 0.00023567, Final residual = 1.11862e-05, No Iterations 12
time step continuity errors : sum local = 2.36712e-11, global = 1.09407e-13, cumulative = -1.47443e-07
DICPCG:  Solving for p, Initial residual = 5.5245e-05, Final residual = 9.95511e-07, No Iterations 219
time step continuity errors : sum local = 2.10659e-12, global = -6.64333e-14, cumulative = -1.47443e-07
ExecutionTime = 98.98 s  ClockTime = 99 s

Time = 0.607

Courant Number mean: 0.118463 max: 0.320281
smoothSolver:  Solving for Ux, Initial residual = 3.70438e-05, Final residual = 7.20499e-08, No Iterations 1
smoothSolver:  Solving for Uz, Initial residual = 3.39257e-05, Final residual = 7.85827e-08, No Iterations 1
DICPCG:  Solving for p, Initial residual = 0.000235955, Final residual = 1.14276e-05, No Iterations 11
time step continuity errors : sum local = 2.41818e-11, global = -6.11163e-14, cumulative = -1.47443e-07
DICPCG:  Solving for p, Initial residual = 5.64e-05, Final residual = 9.9995e-07, No Iterations 229
time step continuity errors : sum local = 2.11599e-12, global = -1.63144e-13, cumulative = -1.47443e-07
ExecutionTime = 100.27 s  ClockTime = 100 s

Time = 0.6071

Courant Number mean: 0.118463 max: 0.320277
smoothSolver:  Solving for Ux, Initial residual = 3.7028e-05, Final residual = 7.20263e-08, No Iterations 1
smoothSolver:  Solving for Uz, Initial residual = 3.39132e-05, Final residual = 7.85562e-08, No Iterations 1
DICPCG:  Solving for p, Initial residual = 0.000235896, Final residual = 1.13419e-05, No Iterations 12
time step continuity errors : sum local = 2.40001e-11, global = -1.26446e-13, cumulative = -1.47443e-07
DICPCG:  Solving for p, Initial residual = 5.54956e-05, Final residual = 9.92311e-07, No Iterations 427
time step continuity errors : sum local = 2.09978e-12, global = 3.3342e-14, cumulative = -1.47443e-07
ExecutionTime = 102.54 s  ClockTime = 103 s

Time = 0.6072

Courant Number mean: 0.118463 max: 0.320273
smoothSolver:  Solving for Ux, Initial residual = 3.70161e-05, Final residual = 7.19971e-08, No Iterations 1
smoothSolver:  Solving for Uz, Initial residual = 3.38979e-05, Final residual = 7.84958e-08, No Iterations 1
DICPCG:  Solving for p, Initial residual = 0.000236097, Final residual = 8.9949e-06, No Iterations 12
time step continuity errors : sum local = 1.90323e-11, global = 3.93523e-13, cumulative = -1.47443e-07
DICPCG:  Solving for p, Initial residual = 5.38198e-05, Final residual = 9.81557e-07, No Iterations 200
time step continuity errors : sum local = 2.07687e-12, global = 7.00649e-14, cumulative = -1.47442e-07
ExecutionTime = 103.68 s  ClockTime = 104 s

Time = 0.6073

Courant Number mean: 0.118463 max: 0.32027
smoothSolver:  Solving for Ux, Initial residual = 3.69991e-05, Final residual = 7.19692e-08, No Iterations 1
smoothSolver:  Solving for Uz, Initial residual = 3.38855e-05, Final residual = 7.84654e-08, No Iterations 1
DICPCG:  Solving for p, Initial residual = 0.000236154, Final residual = 1.03651e-05, No Iterations 12
time step continuity errors : sum local = 2.19315e-11, global = 2.25145e-13, cumulative = -1.47442e-07
DICPCG:  Solving for p, Initial residual = 5.44805e-05, Final residual = 9.93935e-07, No Iterations 221
time step continuity errors : sum local = 2.10305e-12, global = 8.48507e-14, cumulative = -1.47442e-07
ExecutionTime = 104.93 s  ClockTime = 105 s

Time = 0.6074

Courant Number mean: 0.118463 max: 0.320266
smoothSolver:  Solving for Ux, Initial residual = 3.69825e-05, Final residual = 7.19342e-08, No Iterations 1
smoothSolver:  Solving for Uz, Initial residual = 3.38723e-05, Final residual = 7.84176e-08, No Iterations 1
DICPCG:  Solving for p, Initial residual = 0.000236349, Final residual = 8.65966e-06, No Iterations 12
time step continuity errors : sum local = 1.8323e-11, global = 2.37684e-13, cumulative = -1.47442e-07
DICPCG:  Solving for p, Initial residual = 5.35147e-05, Final residual = 9.90386e-07, No Iterations 167
time step continuity errors : sum local = 2.09556e-12, global = 1.94764e-14, cumulative = -1.47442e-07
ExecutionTime = 105.9 s  ClockTime = 106 s

Time = 0.6075

Courant Number mean: 0.118463 max: 0.320263
smoothSolver:  Solving for Ux, Initial residual = 3.69655e-05, Final residual = 7.19074e-08, No Iterations 1
smoothSolver:  Solving for Uz, Initial residual = 3.38583e-05, Final residual = 7.83815e-08, No Iterations 1
DICPCG:  Solving for p, Initial residual = 0.000235978, Final residual = 1.03716e-05, No Iterations 12
time step continuity errors : sum local = 2.19454e-11, global = 7.96547e-14, cumulative = -1.47442e-07
DICPCG:  Solving for p, Initial residual = 5.45307e-05, Final residual = 9.95152e-07, No Iterations 220
time step continuity errors : sum local = 2.10563e-12, global = -8.72067e-14, cumulative = -1.47442e-07
ExecutionTime = 107.14 s  ClockTime = 107 s

Time = 0.6076

Courant Number mean: 0.118463 max: 0.320259
smoothSolver:  Solving for Ux, Initial residual = 3.69494e-05, Final residual = 7.18706e-08, No Iterations 1
smoothSolver:  Solving for Uz, Initial residual = 3.38462e-05, Final residual = 7.8334e-08, No Iterations 1
DICPCG:  Solving for p, Initial residual = 0.000235949, Final residual = 1.17538e-05, No Iterations 11
time step continuity errors : sum local = 2.48699e-11, global = -8.20252e-14, cumulative = -1.47442e-07
DICPCG:  Solving for p, Initial residual = 5.69906e-05, Final residual = 9.86119e-07, No Iterations 237
time step continuity errors : sum local = 2.08652e-12, global = -1.86273e-13, cumulative = -1.47442e-07
ExecutionTime = 108.46 s  ClockTime = 109 s

Time = 0.6077

Courant Number mean: 0.118463 max: 0.320256
smoothSolver:  Solving for Ux, Initial residual = 3.69339e-05, Final residual = 7.18472e-08, No Iterations 1
smoothSolver:  Solving for Uz, Initial residual = 3.38338e-05, Final residual = 7.83073e-08, No Iterations 1
DICPCG:  Solving for p, Initial residual = 0.000236087, Final residual = 1.09939e-05, No Iterations 13
time step continuity errors : sum local = 2.32614e-11, global = -1.54661e-13, cumulative = -1.47442e-07
DICPCG:  Solving for p, Initial residual = 5.57743e-05, Final residual = 9.78728e-07, No Iterations 425
time step continuity errors : sum local = 2.07084e-12, global = 3.23125e-14, cumulative = -1.47442e-07
ExecutionTime = 110.73 s  ClockTime = 111 s

Time = 0.6078

Courant Number mean: 0.118463 max: 0.320252
smoothSolver:  Solving for Ux, Initial residual = 3.6922e-05, Final residual = 7.18184e-08, No Iterations 1
smoothSolver:  Solving for Uz, Initial residual = 3.38192e-05, Final residual = 7.82486e-08, No Iterations 1
DICPCG:  Solving for p, Initial residual = 0.000236011, Final residual = 1.17994e-05, No Iterations 11
time step continuity errors : sum local = 2.49639e-11, global = 3.9073e-13, cumulative = -1.47442e-07
DICPCG:  Solving for p, Initial residual = 5.71198e-05, Final residual = 9.88926e-07, No Iterations 205
time step continuity errors : sum local = 2.09226e-12, global = 7.98635e-14, cumulative = -1.47442e-07
ExecutionTime = 111.9 s  ClockTime = 112 s

Time = 0.6079

Courant Number mean: 0.118463 max: 0.320249
smoothSolver:  Solving for Ux, Initial residual = 3.69051e-05, Final residual = 7.17905e-08, No Iterations 1
smoothSolver:  Solving for Uz, Initial residual = 3.38068e-05, Final residual = 7.82177e-08, No Iterations 1
DICPCG:  Solving for p, Initial residual = 0.000236271, Final residual = 1.16473e-05, No Iterations 12
time step continuity errors : sum local = 2.46421e-11, global = 2.46244e-13, cumulative = -1.47442e-07
DICPCG:  Solving for p, Initial residual = 5.61101e-05, Final residual = 9.86922e-07, No Iterations 221
time step continuity errors : sum local = 2.08802e-12, global = 1.01676e-13, cumulative = -1.47441e-07
ExecutionTime = 113.15 s  ClockTime = 113 s

Time = 0.608

Courant Number mean: 0.118463 max: 0.320245
smoothSolver:  Solving for Ux, Initial residual = 3.68886e-05, Final residual = 7.17559e-08, No Iterations 1
smoothSolver:  Solving for Uz, Initial residual = 3.37937e-05, Final residual = 7.81703e-08, No Iterations 1
DICPCG:  Solving for p, Initial residual = 0.000236182, Final residual = 1.13334e-05, No Iterations 11
time step continuity errors : sum local = 2.39782e-11, global = 2.36413e-13, cumulative = -1.47441e-07
DICPCG:  Solving for p, Initial residual = 5.66908e-05, Final residual = 9.86131e-07, No Iterations 177
time step continuity errors : sum local = 2.08637e-12, global = 3.89441e-14, cumulative = -1.47441e-07
ExecutionTime = 114.18 s  ClockTime = 114 s

Time = 0.6081

Courant Number mean: 0.118462 max: 0.320242
smoothSolver:  Solving for Ux, Initial residual = 3.68716e-05, Final residual = 7.1729e-08, No Iterations 1
smoothSolver:  Solving for Uz, Initial residual = 3.37802e-05, Final residual = 7.81354e-08, No Iterations 1
DICPCG:  Solving for p, Initial residual = 0.000236366, Final residual = 1.04107e-05, No Iterations 12
time step continuity errors : sum local = 2.2026e-11, global = 1.01277e-13, cumulative = -1.47441e-07
DICPCG:  Solving for p, Initial residual = 5.48678e-05, Final residual = 9.83089e-07, No Iterations 219
time step continuity errors : sum local = 2.07992e-12, global = -7.10177e-14, cumulative = -1.47441e-07
ExecutionTime = 115.42 s  ClockTime = 116 s

Time = 0.6082

Courant Number mean: 0.118462 max: 0.320238
smoothSolver:  Solving for Ux, Initial residual = 3.68556e-05, Final residual = 7.16927e-08, No Iterations 1
smoothSolver:  Solving for Uz, Initial residual = 3.37681e-05, Final residual = 7.80876e-08, No Iterations 1
DICPCG:  Solving for p, Initial residual = 0.000236382, Final residual = 8.91511e-06, No Iterations 12
time step continuity errors : sum local = 1.88617e-11, global = -4.58614e-14, cumulative = -1.47441e-07
DICPCG:  Solving for p, Initial residual = 5.40612e-05, Final residual = 9.90356e-07, No Iterations 233
time step continuity errors : sum local = 2.0953e-12, global = -1.7885e-13, cumulative = -1.47441e-07
ExecutionTime = 116.73 s  ClockTime = 117 s

Time = 0.6083

Courant Number mean: 0.118462 max: 0.320235
smoothSolver:  Solving for Ux, Initial residual = 3.684e-05, Final residual = 7.16689e-08, No Iterations 1
smoothSolver:  Solving for Uz, Initial residual = 3.37558e-05, Final residual = 7.80608e-08, No Iterations 1
DICPCG:  Solving for p, Initial residual = 0.000236433, Final residual = 1.07858e-05, No Iterations 13
time step continuity errors : sum local = 2.2819e-11, global = -1.64401e-13, cumulative = -1.47442e-07
DICPCG:  Solving for p, Initial residual = 5.56967e-05, Final residual = 9.90585e-07, No Iterations 425
time step continuity errors : sum local = 2.09574e-12, global = 3.43438e-14, cumulative = -1.47441e-07
ExecutionTime = 119 s  ClockTime = 119 s

Time = 0.6084

Courant Number mean: 0.118462 max: 0.320231
smoothSolver:  Solving for Ux, Initial residual = 3.68284e-05, Final residual = 7.16408e-08, No Iterations 1
smoothSolver:  Solving for Uz, Initial residual = 3.37418e-05, Final residual = 7.80046e-08, No Iterations 1
DICPCG:  Solving for p, Initial residual = 0.000236453, Final residual = 9.03896e-06, No Iterations 12
time step continuity errors : sum local = 1.91219e-11, global = 4.15166e-13, cumulative = -1.47441e-07
DICPCG:  Solving for p, Initial residual = 5.43149e-05, Final residual = 9.81734e-07, No Iterations 199
time step continuity errors : sum local = 2.07686e-12, global = 7.64793e-14, cumulative = -1.47441e-07
ExecutionTime = 120.13 s  ClockTime = 120 s

Time = 0.6085

Courant Number mean: 0.118462 max: 0.320228
smoothSolver:  Solving for Ux, Initial residual = 3.68116e-05, Final residual = 7.16131e-08, No Iterations 1
smoothSolver:  Solving for Uz, Initial residual = 3.37295e-05, Final residual = 7.7973e-08, No Iterations 1
DICPCG:  Solving for p, Initial residual = 0.000236745, Final residual = 1.08525e-05, No Iterations 13
time step continuity errors : sum local = 2.29585e-11, global = 2.22835e-13, cumulative = -1.47441e-07
DICPCG:  Solving for p, Initial residual = 5.58119e-05, Final residual = 9.82359e-07, No Iterations 221
time step continuity errors : sum local = 2.07817e-12, global = 9.57647e-14, cumulative = -1.47441e-07
ExecutionTime = 121.38 s  ClockTime = 121 s

Time = 0.6086

Courant Number mean: 0.118462 max: 0.320225
smoothSolver:  Solving for Ux, Initial residual = 3.67952e-05, Final residual = 7.15784e-08, No Iterations 1
smoothSolver:  Solving for Uz, Initial residual = 3.37171e-05, Final residual = 7.79278e-08, No Iterations 1
DICPCG:  Solving for p, Initial residual = 0.000236667, Final residual = 9.5293e-06, No Iterations 12
time step continuity errors : sum local = 2.01594e-11, global = 2.53734e-13, cumulative = -1.4744e-07
DICPCG:  Solving for p, Initial residual = 5.4921e-05, Final residual = 9.98629e-07, No Iterations 158
time step continuity errors : sum local = 2.11262e-12, global = 3.29546e-14, cumulative = -1.4744e-07
ExecutionTime = 122.31 s  ClockTime = 122 s

Time = 0.6087

Courant Number mean: 0.118462 max: 0.320221
smoothSolver:  Solving for Ux, Initial residual = 3.67784e-05, Final residual = 7.15522e-08, No Iterations 1
smoothSolver:  Solving for Uz, Initial residual = 3.37033e-05, Final residual = 7.78913e-08, No Iterations 1
DICPCG:  Solving for p, Initial residual = 0.000236818, Final residual = 1.00286e-05, No Iterations 12
time step continuity errors : sum local = 2.12155e-11, global = 9.56327e-14, cumulative = -1.4744e-07
DICPCG:  Solving for p, Initial residual = 5.46537e-05, Final residual = 9.80441e-07, No Iterations 219
time step continuity errors : sum local = 2.07413e-12, global = -7.62796e-14, cumulative = -1.4744e-07
ExecutionTime = 123.56 s  ClockTime = 124 s

Time = 0.6088

Courant Number mean: 0.118462 max: 0.320218
smoothSolver:  Solving for Ux, Initial residual = 3.67624e-05, Final residual = 7.15155e-08, No Iterations 1
smoothSolver:  Solving for Uz, Initial residual = 3.3692e-05, Final residual = 7.78455e-08, No Iterations 1
DICPCG:  Solving for p, Initial residual = 0.000236916, Final residual = 1.12395e-05, No Iterations 11
time step continuity errors : sum local = 2.37773e-11, global = -7.88009e-14, cumulative = -1.4744e-07
DICPCG:  Solving for p, Initial residual = 5.68636e-05, Final residual = 9.97717e-07, No Iterations 234
time step continuity errors : sum local = 2.11068e-12, global = -1.73539e-13, cumulative = -1.47441e-07
ExecutionTime = 124.95 s  ClockTime = 125 s

Time = 0.6089

Courant Number mean: 0.118462 max: 0.320214
smoothSolver:  Solving for Ux, Initial residual = 3.67471e-05, Final residual = 7.14927e-08, No Iterations 1
smoothSolver:  Solving for Uz, Initial residual = 3.36803e-05, Final residual = 7.78206e-08, No Iterations 1
DICPCG:  Solving for p, Initial residual = 0.000237154, Final residual = 1.11759e-05, No Iterations 12
time step continuity errors : sum local = 2.36422e-11, global = -1.32005e-13, cumulative = -1.47441e-07
DICPCG:  Solving for p, Initial residual = 5.60182e-05, Final residual = 9.91463e-07, No Iterations 426
time step continuity errors : sum local = 2.0974e-12, global = 3.18537e-14, cumulative = -1.47441e-07
ExecutionTime = 127.35 s  ClockTime = 127 s

Time = 0.609

Courant Number mean: 0.118462 max: 0.320211
smoothSolver:  Solving for Ux, Initial residual = 3.67355e-05, Final residual = 7.14642e-08, No Iterations 1
smoothSolver:  Solving for Uz, Initial residual = 3.36659e-05, Final residual = 7.77619e-08, No Iterations 1
DICPCG:  Solving for p, Initial residual = 0.000237107, Final residual = 1.17558e-05, No Iterations 11
time step continuity errors : sum local = 2.48672e-11, global = 3.75266e-13, cumulative = -1.4744e-07
DICPCG:  Solving for p, Initial residual = 5.75002e-05, Final residual = 9.96256e-07, No Iterations 204
time step continuity errors : sum local = 2.10739e-12, global = 7.54661e-14, cumulative = -1.4744e-07
ExecutionTime = 128.57 s  ClockTime = 129 s

Time = 0.6091

Courant Number mean: 0.118462 max: 0.320207
smoothSolver:  Solving for Ux, Initial residual = 3.67188e-05, Final residual = 7.14368e-08, No Iterations 1
smoothSolver:  Solving for Uz, Initial residual = 3.36544e-05, Final residual = 7.77333e-08, No Iterations 1
DICPCG:  Solving for p, Initial residual = 0.000237337, Final residual = 1.18057e-05, No Iterations 12
time step continuity errors : sum local = 2.49728e-11, global = 2.38185e-13, cumulative = -1.4744e-07
DICPCG:  Solving for p, Initial residual = 5.66779e-05, Final residual = 9.79476e-07, No Iterations 221
time step continuity errors : sum local = 2.07189e-12, global = 9.34875e-14, cumulative = -1.4744e-07
ExecutionTime = 129.89 s  ClockTime = 130 s

Time = 0.6092

Courant Number mean: 0.118462 max: 0.320204
smoothSolver:  Solving for Ux, Initial residual = 3.67026e-05, Final residual = 7.14025e-08, No Iterations 1
smoothSolver:  Solving for Uz, Initial residual = 3.36418e-05, Final residual = 7.76871e-08, No Iterations 1
DICPCG:  Solving for p, Initial residual = 0.000237304, Final residual = 1.13396e-05, No Iterations 11
time step continuity errors : sum local = 2.39869e-11, global = 2.22271e-13, cumulative = -1.4744e-07
DICPCG:  Solving for p, Initial residual = 5.71447e-05, Final residual = 9.73435e-07, No Iterations 177
time step continuity errors : sum local = 2.05914e-12, global = 2.91518e-14, cumulative = -1.4744e-07
ExecutionTime = 130.96 s  ClockTime = 131 s

Time = 0.6093

Courant Number mean: 0.118462 max: 0.3202
smoothSolver:  Solving for Ux, Initial residual = 3.66858e-05, Final residual = 7.1376e-08, No Iterations 1
smoothSolver:  Solving for Uz, Initial residual = 3.36289e-05, Final residual = 7.7654e-08, No Iterations 1
DICPCG:  Solving for p, Initial residual = 0.000237489, Final residual = 1.01896e-05, No Iterations 12
time step continuity errors : sum local = 2.15542e-11, global = 8.82712e-14, cumulative = -1.4744e-07
DICPCG:  Solving for p, Initial residual = 5.50312e-05, Final residual = 9.93865e-07, No Iterations 219
time step continuity errors : sum local = 2.10234e-12, global = -8.03788e-14, cumulative = -1.4744e-07
ExecutionTime = 132.27 s  ClockTime = 132 s

Time = 0.6094

Courant Number mean: 0.118462 max: 0.320197
smoothSolver:  Solving for Ux, Initial residual = 3.667e-05, Final residual = 7.13401e-08, No Iterations 1
smoothSolver:  Solving for Uz, Initial residual = 3.36174e-05, Final residual = 7.76077e-08, No Iterations 1
DICPCG:  Solving for p, Initial residual = 0.000237493, Final residual = 8.42972e-06, No Iterations 12
time step continuity errors : sum local = 1.78316e-11, global = -5.71241e-14, cumulative = -1.4744e-07
DICPCG:  Solving for p, Initial residual = 5.39779e-05, Final residual = 9.83474e-07, No Iterations 236
time step continuity errors : sum local = 2.08036e-12, global = -1.87812e-13, cumulative = -1.4744e-07
ExecutionTime = 133.67 s  ClockTime = 134 s

Time = 0.6095

Courant Number mean: 0.118461 max: 0.320193
smoothSolver:  Solving for Ux, Initial residual = 3.66548e-05, Final residual = 7.13167e-08, No Iterations 1
smoothSolver:  Solving for Uz, Initial residual = 3.36056e-05, Final residual = 7.75824e-08, No Iterations 1
DICPCG:  Solving for p, Initial residual = 0.000237504, Final residual = 1.16577e-05, No Iterations 12
time step continuity errors : sum local = 2.46593e-11, global = -1.53758e-13, cumulative = -1.4744e-07
DICPCG:  Solving for p, Initial residual = 5.67202e-05, Final residual = 9.90794e-07, No Iterations 425
time step continuity errors : sum local = 2.0958e-12, global = 3.39943e-14, cumulative = -1.4744e-07
ExecutionTime = 136.06 s  ClockTime = 136 s

Time = 0.6096

Courant Number mean: 0.118461 max: 0.32019
smoothSolver:  Solving for Ux, Initial residual = 3.66434e-05, Final residual = 7.12891e-08, No Iterations 1
smoothSolver:  Solving for Uz, Initial residual = 3.3592e-05, Final residual = 7.75265e-08, No Iterations 1
DICPCG:  Solving for p, Initial residual = 0.000237617, Final residual = 9.09892e-06, No Iterations 12
time step continuity errors : sum local = 1.92453e-11, global = 4.19524e-13, cumulative = -1.4744e-07
DICPCG:  Solving for p, Initial residual = 5.47301e-05, Final residual = 9.72356e-07, No Iterations 199
time step continuity errors : sum local = 2.05665e-12, global = 7.98229e-14, cumulative = -1.4744e-07
ExecutionTime = 137.26 s  ClockTime = 137 s

Time = 0.6097

Courant Number mean: 0.118461 max: 0.320186
smoothSolver:  Solving for Ux, Initial residual = 3.66268e-05, Final residual = 7.12615e-08, No Iterations 1
smoothSolver:  Solving for Uz, Initial residual = 3.35804e-05, Final residual = 7.74974e-08, No Iterations 1
DICPCG:  Solving for p, Initial residual = 0.000237797, Final residual = 1.0193e-05, No Iterations 12
time step continuity errors : sum local = 2.15595e-11, global = 2.40871e-13, cumulative = -1.47439e-07
DICPCG:  Solving for p, Initial residual = 5.51598e-05, Final residual = 9.87174e-07, No Iterations 221
time step continuity errors : sum local = 2.08798e-12, global = 1.03138e-13, cumulative = -1.47439e-07
ExecutionTime = 138.59 s  ClockTime = 139 s

Time = 0.6098

Courant Number mean: 0.118461 max: 0.320183
smoothSolver:  Solving for Ux, Initial residual = 3.66107e-05, Final residual = 7.12274e-08, No Iterations 1
smoothSolver:  Solving for Uz, Initial residual = 3.35683e-05, Final residual = 7.74525e-08, No Iterations 1
DICPCG:  Solving for p, Initial residual = 0.0002379, Final residual = 1.12055e-05, No Iterations 11
time step continuity errors : sum local = 2.37012e-11, global = 2.35834e-13, cumulative = -1.47439e-07
DICPCG:  Solving for p, Initial residual = 5.72079e-05, Final residual = 9.79345e-07, No Iterations 158
time step continuity errors : sum local = 2.07145e-12, global = 4.07379e-14, cumulative = -1.47439e-07
ExecutionTime = 139.56 s  ClockTime = 140 s

Time = 0.6099

Courant Number mean: 0.118461 max: 0.32018
smoothSolver:  Solving for Ux, Initial residual = 3.6594e-05, Final residual = 7.12013e-08, No Iterations 1
smoothSolver:  Solving for Uz, Initial residual = 3.35553e-05, Final residual = 7.74182e-08, No Iterations 1
DICPCG:  Solving for p, Initial residual = 0.000238145, Final residual = 1.01721e-05, No Iterations 12
time step continuity errors : sum local = 2.15153e-11, global = 1.02167e-13, cumulative = -1.47439e-07
DICPCG:  Solving for p, Initial residual = 5.51847e-05, Final residual = 9.94668e-07, No Iterations 219
time step continuity errors : sum local = 2.10385e-12, global = -6.9734e-14, cumulative = -1.47439e-07
ExecutionTime = 140.86 s  ClockTime = 141 s

Time = 0.61

Courant Number mean: 0.118461 max: 0.320176
smoothSolver:  Solving for Ux, Initial residual = 3.65782e-05, Final residual = 7.11649e-08, No Iterations 1
smoothSolver:  Solving for Uz, Initial residual = 3.35444e-05, Final residual = 7.73734e-08, No Iterations 1
DICPCG:  Solving for p, Initial residual = 0.00023822, Final residual = 1.12913e-05, No Iterations 11
time step continuity errors : sum local = 2.38827e-11, global = -7.48607e-14, cumulative = -1.47439e-07
DICPCG:  Solving for p, Initial residual = 5.73792e-05, Final residual = 9.87524e-07, No Iterations 232
time step continuity errors : sum local = 2.08874e-12, global = -1.68603e-13, cumulative = -1.47439e-07
ExecutionTime = 142.53 s  ClockTime = 143 s

Time = 0.6101

Courant Number mean: 0.118461 max: 0.320173
smoothSolver:  Solving for Ux, Initial residual = 3.65631e-05, Final residual = 7.11423e-08, No Iterations 1
smoothSolver:  Solving for Uz, Initial residual = 3.35333e-05, Final residual = 7.73498e-08, No Iterations 1
DICPCG:  Solving for p, Initial residual = 0.000238418, Final residual = 1.16006e-05, No Iterations 12
time step continuity errors : sum local = 2.45364e-11, global = -1.31297e-13, cumulative = -1.47439e-07
DICPCG:  Solving for p, Initial residual = 5.6889e-05, Final residual = 9.90069e-07, No Iterations 426
time step continuity errors : sum local = 2.09408e-12, global = 3.17263e-14, cumulative = -1.47439e-07
ExecutionTime = 144.92 s  ClockTime = 145 s

Time = 0.6102

Courant Number mean: 0.118461 max: 0.320169
smoothSolver:  Solving for Ux, Initial residual = 3.65517e-05, Final residual = 7.11142e-08, No Iterations 1
smoothSolver:  Solving for Uz, Initial residual = 3.35194e-05, Final residual = 7.72924e-08, No Iterations 1
DICPCG:  Solving for p, Initial residual = 0.000238452, Final residual = 8.89847e-06, No Iterations 12
time step continuity errors : sum local = 1.88197e-11, global = 3.9535e-13, cumulative = -1.47439e-07
DICPCG:  Solving for p, Initial residual = 5.47165e-05, Final residual = 9.96157e-07, No Iterations 200
time step continuity errors : sum local = 2.1068e-12, global = 7.37048e-14, cumulative = -1.47439e-07
ExecutionTime = 146.12 s  ClockTime = 146 s

Time = 0.6103

Courant Number mean: 0.118461 max: 0.320166
smoothSolver:  Solving for Ux, Initial residual = 3.65352e-05, Final residual = 7.10873e-08, No Iterations 1
smoothSolver:  Solving for Uz, Initial residual = 3.35083e-05, Final residual = 7.72646e-08, No Iterations 1
DICPCG:  Solving for p, Initial residual = 0.000238682, Final residual = 1.0716e-05, No Iterations 12
time step continuity errors : sum local = 2.26636e-11, global = 2.33542e-13, cumulative = -1.47439e-07
DICPCG:  Solving for p, Initial residual = 5.59708e-05, Final residual = 9.80293e-07, No Iterations 221
time step continuity errors : sum local = 2.07325e-12, global = 9.03228e-14, cumulative = -1.47438e-07
ExecutionTime = 147.44 s  ClockTime = 148 s

Time = 0.6104

Courant Number mean: 0.118461 max: 0.320162
smoothSolver:  Solving for Ux, Initial residual = 3.65192e-05, Final residual = 7.10532e-08, No Iterations 1
smoothSolver:  Solving for Uz, Initial residual = 3.34965e-05, Final residual = 7.72199e-08, No Iterations 1
DICPCG:  Solving for p, Initial residual = 0.00023876, Final residual = 8.60167e-06, No Iterations 12
time step continuity errors : sum local = 1.81921e-11, global = 2.42096e-13, cumulative = -1.47438e-07
DICPCG:  Solving for p, Initial residual = 5.45042e-05, Final residual = 9.72342e-07, No Iterations 159
time step continuity errors : sum local = 2.05646e-12, global = 2.41467e-14, cumulative = -1.47438e-07
ExecutionTime = 148.42 s  ClockTime = 149 s

Time = 0.6105

Courant Number mean: 0.118461 max: 0.320159
smoothSolver:  Solving for Ux, Initial residual = 3.65026e-05, Final residual = 7.10274e-08, No Iterations 1
smoothSolver:  Solving for Uz, Initial residual = 3.34838e-05, Final residual = 7.71866e-08, No Iterations 1
DICPCG:  Solving for p, Initial residual = 0.000238927, Final residual = 1.02015e-05, No Iterations 12
time step continuity errors : sum local = 2.15755e-11, global = 8.20428e-14, cumulative = -1.47438e-07
DICPCG:  Solving for p, Initial residual = 5.54506e-05, Final residual = 9.99171e-07, No Iterations 219
time step continuity errors : sum local = 2.11318e-12, global = -8.39241e-14, cumulative = -1.47438e-07
ExecutionTime = 149.72 s  ClockTime = 150 s

Time = 0.6106

Courant Number mean: 0.118461 max: 0.320156
smoothSolver:  Solving for Ux, Initial residual = 3.6487e-05, Final residual = 7.09914e-08, No Iterations 1
smoothSolver:  Solving for Uz, Initial residual = 3.34731e-05, Final residual = 7.71425e-08, No Iterations 1
DICPCG:  Solving for p, Initial residual = 0.000239132, Final residual = 1.17578e-05, No Iterations 11
time step continuity errors : sum local = 2.4867e-11, global = -8.72675e-14, cumulative = -1.47438e-07
DICPCG:  Solving for p, Initial residual = 5.80683e-05, Final residual = 9.91417e-07, No Iterations 237
time step continuity errors : sum local = 2.09679e-12, global = -1.82535e-13, cumulative = -1.47438e-07
ExecutionTime = 151.12 s  ClockTime = 151 s

Time = 0.6107

Courant Number mean: 0.118461 max: 0.320152
smoothSolver:  Solving for Ux, Initial residual = 3.64721e-05, Final residual = 7.09692e-08, No Iterations 1
smoothSolver:  Solving for Uz, Initial residual = 3.34622e-05, Final residual = 7.71191e-08, No Iterations 1
DICPCG:  Solving for p, Initial residual = 0.000239412, Final residual = 1.04221e-05, No Iterations 13
time step continuity errors : sum local = 2.20418e-11, global = -1.53374e-13, cumulative = -1.47439e-07
DICPCG:  Solving for p, Initial residual = 5.624e-05, Final residual = 9.66971e-07, No Iterations 425
time step continuity errors : sum local = 2.04504e-12, global = 3.02975e-14, cumulative = -1.47439e-07
ExecutionTime = 153.5 s  ClockTime = 154 s

Time = 0.6108

Courant Number mean: 0.118461 max: 0.320149
smoothSolver:  Solving for Ux, Initial residual = 3.64607e-05, Final residual = 7.09412e-08, No Iterations 1
smoothSolver:  Solving for Uz, Initial residual = 3.34486e-05, Final residual = 7.70623e-08, No Iterations 1
[...]
ExecutionTime = 4667.45 s  ClockTime = 4677 s

Time = 0.9974

Courant Number mean: 0.118168 max: 0.317313
smoothSolver:  Solving for Ux, Initial residual = 4.82145e-06, Final residual = 4.82145e-06, No Iterations 0
smoothSolver:  Solving for Uz, Initial residual = 8.42995e-06, Final residual = 8.42995e-06, No Iterations 0
DICPCG:  Solving for p, Initial residual = 0.000254666, Final residual = 1.24242e-05, No Iterations 5
time step continuity errors : sum local = 2.47129e-11, global = -2.16198e-13, cumulative = -1.48477e-07
DICPCG:  Solving for p, Initial residual = 4.13118e-05, Final residual = 9.98216e-07, No Iterations 151
time step continuity errors : sum local = 1.98556e-12, global = 4.93192e-14, cumulative = -1.48477e-07
ExecutionTime = 4668.28 s  ClockTime = 4678 s

Time = 0.9975

Courant Number mean: 0.118168 max: 0.317313
smoothSolver:  Solving for Ux, Initial residual = 4.81738e-06, Final residual = 4.81738e-06, No Iterations 0
smoothSolver:  Solving for Uz, Initial residual = 8.42427e-06, Final residual = 8.42427e-06, No Iterations 0
DICPCG:  Solving for p, Initial residual = 0.00025472, Final residual = 1.25219e-05, No Iterations 5
time step continuity errors : sum local = 2.49073e-11, global = -2.4076e-13, cumulative = -1.48477e-07
DICPCG:  Solving for p, Initial residual = 4.13868e-05, Final residual = 9.93938e-07, No Iterations 78
time step continuity errors : sum local = 1.97703e-12, global = 4.29057e-14, cumulative = -1.48477e-07
ExecutionTime = 4668.75 s  ClockTime = 4678 s

Time = 0.9976

Courant Number mean: 0.118168 max: 0.317314
smoothSolver:  Solving for Ux, Initial residual = 4.81326e-06, Final residual = 4.81326e-06, No Iterations 0
smoothSolver:  Solving for Uz, Initial residual = 8.42216e-06, Final residual = 8.42216e-06, No Iterations 0
DICPCG:  Solving for p, Initial residual = 0.000254804, Final residual = 9.53149e-06, No Iterations 9
time step continuity errors : sum local = 1.89591e-11, global = -3.61247e-13, cumulative = -1.48478e-07
DICPCG:  Solving for p, Initial residual = 4.18141e-05, Final residual = 9.75641e-07, No Iterations 49
time step continuity errors : sum local = 1.94066e-12, global = -2.0353e-14, cumulative = -1.48478e-07
ExecutionTime = 4669.11 s  ClockTime = 4679 s

Time = 0.9977

Courant Number mean: 0.118167 max: 0.317314
smoothSolver:  Solving for Ux, Initial residual = 4.80926e-06, Final residual = 4.80926e-06, No Iterations 0
smoothSolver:  Solving for Uz, Initial residual = 8.41751e-06, Final residual = 8.41751e-06, No Iterations 0
DICPCG:  Solving for p, Initial residual = 0.000254348, Final residual = 1.23567e-05, No Iterations 5
time step continuity errors : sum local = 2.45787e-11, global = -4.29943e-13, cumulative = -1.48478e-07
DICPCG:  Solving for p, Initial residual = 4.13852e-05, Final residual = 9.93919e-07, No Iterations 146
time step continuity errors : sum local = 1.97699e-12, global = -1.73196e-15, cumulative = -1.48478e-07
ExecutionTime = 4669.91 s  ClockTime = 4680 s

Time = 0.9978

Courant Number mean: 0.118167 max: 0.317314
smoothSolver:  Solving for Ux, Initial residual = 4.80664e-06, Final residual = 4.80664e-06, No Iterations 0
smoothSolver:  Solving for Uz, Initial residual = 8.41651e-06, Final residual = 8.41651e-06, No Iterations 0
DICPCG:  Solving for p, Initial residual = 0.000254616, Final residual = 1.25806e-05, No Iterations 5
time step continuity errors : sum local = 2.50239e-11, global = -3.39874e-13, cumulative = -1.48478e-07
DICPCG:  Solving for p, Initial residual = 4.14628e-05, Final residual = 9.92087e-07, No Iterations 102
time step continuity errors : sum local = 1.97336e-12, global = -1.91268e-13, cumulative = -1.48479e-07
ExecutionTime = 4670.5 s  ClockTime = 4680 s

Time = 0.9979

Courant Number mean: 0.118167 max: 0.317314
smoothSolver:  Solving for Ux, Initial residual = 4.80255e-06, Final residual = 4.80255e-06, No Iterations 0
smoothSolver:  Solving for Uz, Initial residual = 8.41483e-06, Final residual = 8.41483e-06, No Iterations 0
DICPCG:  Solving for p, Initial residual = 0.000254686, Final residual = 1.27236e-05, No Iterations 5
time step continuity errors : sum local = 2.53083e-11, global = -7.46869e-13, cumulative = -1.48479e-07
DICPCG:  Solving for p, Initial residual = 4.16246e-05, Final residual = 9.84542e-07, No Iterations 335
time step continuity errors : sum local = 1.95833e-12, global = -4.37121e-14, cumulative = -1.48479e-07
ExecutionTime = 4672.23 s  ClockTime = 4682 s

Time = 0.998

Courant Number mean: 0.118167 max: 0.317314
smoothSolver:  Solving for Ux, Initial residual = 4.801e-06, Final residual = 4.801e-06, No Iterations 0
smoothSolver:  Solving for Uz, Initial residual = 8.40614e-06, Final residual = 8.40614e-06, No Iterations 0
DICPCG:  Solving for p, Initial residual = 0.000254877, Final residual = 1.25569e-05, No Iterations 5
time step continuity errors : sum local = 2.49745e-11, global = -2.43073e-13, cumulative = -1.4848e-07
DICPCG:  Solving for p, Initial residual = 4.13837e-05, Final residual = 9.99549e-07, No Iterations 122
time step continuity errors : sum local = 1.98802e-12, global = 1.0614e-13, cumulative = -1.48479e-07
ExecutionTime = 4672.92 s  ClockTime = 4683 s

Time = 0.9981

Courant Number mean: 0.118167 max: 0.317314
smoothSolver:  Solving for Ux, Initial residual = 4.79776e-06, Final residual = 4.79776e-06, No Iterations 0
smoothSolver:  Solving for Uz, Initial residual = 8.40715e-06, Final residual = 8.40715e-06, No Iterations 0
DICPCG:  Solving for p, Initial residual = 0.000254842, Final residual = 1.26925e-05, No Iterations 5
time step continuity errors : sum local = 2.52441e-11, global = -1.31507e-13, cumulative = -1.4848e-07
DICPCG:  Solving for p, Initial residual = 4.15418e-05, Final residual = 9.93861e-07, No Iterations 101
time step continuity errors : sum local = 1.97669e-12, global = 2.04108e-13, cumulative = -1.48479e-07
ExecutionTime = 4673.5 s  ClockTime = 4683 s

Time = 0.9982

Courant Number mean: 0.118167 max: 0.317314
smoothSolver:  Solving for Ux, Initial residual = 4.79382e-06, Final residual = 4.79382e-06, No Iterations 0
smoothSolver:  Solving for Uz, Initial residual = 8.40182e-06, Final residual = 8.40182e-06, No Iterations 0
DICPCG:  Solving for p, Initial residual = 0.000254814, Final residual = 1.26668e-05, No Iterations 5
time step continuity errors : sum local = 2.51931e-11, global = -8.56749e-14, cumulative = -1.48479e-07
DICPCG:  Solving for p, Initial residual = 4.15042e-05, Final residual = 9.96088e-07, No Iterations 72
time step continuity errors : sum local = 1.98114e-12, global = 1.91863e-13, cumulative = -1.48479e-07
ExecutionTime = 4673.95 s  ClockTime = 4684 s

Time = 0.9983

Courant Number mean: 0.118167 max: 0.317314
smoothSolver:  Solving for Ux, Initial residual = 4.79015e-06, Final residual = 4.79015e-06, No Iterations 0
smoothSolver:  Solving for Uz, Initial residual = 8.39931e-06, Final residual = 8.39931e-06, No Iterations 0
DICPCG:  Solving for p, Initial residual = 0.000254729, Final residual = 9.4785e-06, No Iterations 9
time step continuity errors : sum local = 1.88519e-11, global = -2.46421e-13, cumulative = -1.4848e-07
DICPCG:  Solving for p, Initial residual = 4.17431e-05, Final residual = 9.98971e-07, No Iterations 63
time step continuity errors : sum local = 1.98685e-12, global = 1.21885e-13, cumulative = -1.48479e-07
ExecutionTime = 4674.37 s  ClockTime = 4684 s

Time = 0.9984

Courant Number mean: 0.118167 max: 0.317315
smoothSolver:  Solving for Ux, Initial residual = 4.78593e-06, Final residual = 4.78593e-06, No Iterations 0
smoothSolver:  Solving for Uz, Initial residual = 8.39499e-06, Final residual = 8.39499e-06, No Iterations 0
DICPCG:  Solving for p, Initial residual = 0.000254495, Final residual = 1.21738e-05, No Iterations 5
time step continuity errors : sum local = 2.42128e-11, global = -3.19044e-13, cumulative = -1.4848e-07
DICPCG:  Solving for p, Initial residual = 4.11353e-05, Final residual = 9.90006e-07, No Iterations 58
time step continuity errors : sum local = 1.96905e-12, global = -2.55768e-14, cumulative = -1.4848e-07
ExecutionTime = 4674.74 s  ClockTime = 4684 s

Time = 0.9985

Courant Number mean: 0.118167 max: 0.317315
smoothSolver:  Solving for Ux, Initial residual = 4.78204e-06, Final residual = 4.78204e-06, No Iterations 0
smoothSolver:  Solving for Uz, Initial residual = 8.39312e-06, Final residual = 8.39312e-06, No Iterations 0
DICPCG:  Solving for p, Initial residual = 0.000254466, Final residual = 1.26043e-05, No Iterations 8
time step continuity errors : sum local = 2.50687e-11, global = -5.2767e-13, cumulative = -1.4848e-07
DICPCG:  Solving for p, Initial residual = 4.37283e-05, Final residual = 9.90955e-07, No Iterations 110
time step continuity errors : sum local = 1.97091e-12, global = -9.37272e-14, cumulative = -1.4848e-07
ExecutionTime = 4675.39 s  ClockTime = 4685 s

Time = 0.9986

Courant Number mean: 0.118167 max: 0.317315
smoothSolver:  Solving for Ux, Initial residual = 4.77904e-06, Final residual = 4.77904e-06, No Iterations 0
smoothSolver:  Solving for Uz, Initial residual = 8.39059e-06, Final residual = 8.39059e-06, No Iterations 0
DICPCG:  Solving for p, Initial residual = 0.000254586, Final residual = 1.22126e-05, No Iterations 5
time step continuity errors : sum local = 2.42898e-11, global = -5.31295e-13, cumulative = -1.48481e-07
DICPCG:  Solving for p, Initial residual = 4.11818e-05, Final residual = 9.99039e-07, No Iterations 102
time step continuity errors : sum local = 1.987e-12, global = -2.52079e-13, cumulative = -1.48481e-07
ExecutionTime = 4675.97 s  ClockTime = 4686 s

Time = 0.9987

Courant Number mean: 0.118167 max: 0.317315
smoothSolver:  Solving for Ux, Initial residual = 4.7755e-06, Final residual = 4.7755e-06, No Iterations 0
smoothSolver:  Solving for Uz, Initial residual = 8.38496e-06, Final residual = 8.38496e-06, No Iterations 0
DICPCG:  Solving for p, Initial residual = 0.000254595, Final residual = 1.2617e-05, No Iterations 5
time step continuity errors : sum local = 2.5094e-11, global = -7.97652e-13, cumulative = -1.48482e-07
DICPCG:  Solving for p, Initial residual = 4.14535e-05, Final residual = 9.57225e-07, No Iterations 260
time step continuity errors : sum local = 1.90381e-12, global = -6.36527e-14, cumulative = -1.48482e-07
ExecutionTime = 4677.33 s  ClockTime = 4687 s

Time = 0.9988

Courant Number mean: 0.118167 max: 0.317315
smoothSolver:  Solving for Ux, Initial residual = 4.77554e-06, Final residual = 4.77554e-06, No Iterations 0
smoothSolver:  Solving for Uz, Initial residual = 8.38409e-06, Final residual = 8.38409e-06, No Iterations 0
DICPCG:  Solving for p, Initial residual = 0.000254738, Final residual = 1.25302e-05, No Iterations 5
time step continuity errors : sum local = 2.49181e-11, global = -2.5367e-13, cumulative = -1.48482e-07
DICPCG:  Solving for p, Initial residual = 4.13831e-05, Final residual = 9.78342e-07, No Iterations 148
time step continuity errors : sum local = 1.94558e-12, global = 2.64878e-13, cumulative = -1.48482e-07
ExecutionTime = 4678.14 s  ClockTime = 4688 s

Time = 0.9989

Courant Number mean: 0.118167 max: 0.317315
smoothSolver:  Solving for Ux, Initial residual = 4.7721e-06, Final residual = 4.7721e-06, No Iterations 0
smoothSolver:  Solving for Uz, Initial residual = 8.37851e-06, Final residual = 8.37851e-06, No Iterations 0
DICPCG:  Solving for p, Initial residual = 0.000254718, Final residual = 1.2469e-05, No Iterations 5
time step continuity errors : sum local = 2.47964e-11, global = 1.72975e-13, cumulative = -1.48482e-07
DICPCG:  Solving for p, Initial residual = 4.12903e-05, Final residual = 9.8806e-07, No Iterations 312
time step continuity errors : sum local = 1.96489e-12, global = 2.58008e-14, cumulative = -1.48482e-07
ExecutionTime = 4679.78 s  ClockTime = 4689 s

Time = 0.999

Courant Number mean: 0.118167 max: 0.317315
smoothSolver:  Solving for Ux, Initial residual = 4.76442e-06, Final residual = 4.76442e-06, No Iterations 0
smoothSolver:  Solving for Uz, Initial residual = 8.37696e-06, Final residual = 8.37696e-06, No Iterations 0
DICPCG:  Solving for p, Initial residual = 0.000254802, Final residual = 1.2425e-05, No Iterations 5
time step continuity errors : sum local = 2.47114e-11, global = -6.46629e-13, cumulative = -1.48482e-07
DICPCG:  Solving for p, Initial residual = 4.12486e-05, Final residual = 9.73058e-07, No Iterations 390
time step continuity errors : sum local = 1.93527e-12, global = -1.57743e-14, cumulative = -1.48482e-07
ExecutionTime = 4681.77 s  ClockTime = 4691 s

Time = 0.9991

Courant Number mean: 0.118167 max: 0.317315
smoothSolver:  Solving for Ux, Initial residual = 4.76266e-06, Final residual = 4.76266e-06, No Iterations 0
smoothSolver:  Solving for Uz, Initial residual = 8.37259e-06, Final residual = 8.37259e-06, No Iterations 0
DICPCG:  Solving for p, Initial residual = 0.000254769, Final residual = 1.2377e-05, No Iterations 5
time step continuity errors : sum local = 2.46141e-11, global = -4.36075e-13, cumulative = -1.48483e-07
DICPCG:  Solving for p, Initial residual = 4.11737e-05, Final residual = 9.93597e-07, No Iterations 148
time step continuity errors : sum local = 1.97596e-12, global = -2.12143e-14, cumulative = -1.48483e-07
ExecutionTime = 4682.57 s  ClockTime = 4692 s

Time = 0.9992

Courant Number mean: 0.118167 max: 0.317315
smoothSolver:  Solving for Ux, Initial residual = 4.75957e-06, Final residual = 4.75957e-06, No Iterations 0
smoothSolver:  Solving for Uz, Initial residual = 8.36672e-06, Final residual = 8.36672e-06, No Iterations 0
DICPCG:  Solving for p, Initial residual = 0.000254801, Final residual = 1.25981e-05, No Iterations 5
time step continuity errors : sum local = 2.50538e-11, global = -4.35735e-13, cumulative = -1.48483e-07
DICPCG:  Solving for p, Initial residual = 4.13872e-05, Final residual = 9.67878e-07, No Iterations 88
time step continuity errors : sum local = 1.92483e-12, global = -1.68317e-13, cumulative = -1.48484e-07
ExecutionTime = 4683.09 s  ClockTime = 4693 s

Time = 0.9993

Courant Number mean: 0.118167 max: 0.317316
smoothSolver:  Solving for Ux, Initial residual = 4.75571e-06, Final residual = 4.75571e-06, No Iterations 0
smoothSolver:  Solving for Uz, Initial residual = 8.36743e-06, Final residual = 8.36743e-06, No Iterations 0
DICPCG:  Solving for p, Initial residual = 0.000254732, Final residual = 1.26835e-05, No Iterations 5
time step continuity errors : sum local = 2.52236e-11, global = -7.28329e-13, cumulative = -1.48484e-07
DICPCG:  Solving for p, Initial residual = 4.14996e-05, Final residual = 9.86821e-07, No Iterations 321
time step continuity errors : sum local = 1.96247e-12, global = -4.97543e-14, cumulative = -1.48484e-07
ExecutionTime = 4684.75 s  ClockTime = 4694 s

Time = 0.9994

Courant Number mean: 0.118167 max: 0.317316
smoothSolver:  Solving for Ux, Initial residual = 4.75458e-06, Final residual = 4.75458e-06, No Iterations 0
smoothSolver:  Solving for Uz, Initial residual = 8.36213e-06, Final residual = 8.36213e-06, No Iterations 0
DICPCG:  Solving for p, Initial residual = 0.000254879, Final residual = 1.25023e-05, No Iterations 5
time step continuity errors : sum local = 2.48613e-11, global = -3.35533e-13, cumulative = -1.48485e-07
DICPCG:  Solving for p, Initial residual = 4.13197e-05, Final residual = 9.72448e-07, No Iterations 129
time step continuity errors : sum local = 1.93376e-12, global = 9.27454e-14, cumulative = -1.48485e-07
ExecutionTime = 4685.48 s  ClockTime = 4695 s

Time = 0.9995

Courant Number mean: 0.118167 max: 0.317316
smoothSolver:  Solving for Ux, Initial residual = 4.75111e-06, Final residual = 4.75111e-06, No Iterations 0
smoothSolver:  Solving for Uz, Initial residual = 8.36021e-06, Final residual = 8.36021e-06, No Iterations 0
DICPCG:  Solving for p, Initial residual = 0.00025479, Final residual = 1.25164e-05, No Iterations 5
time step continuity errors : sum local = 2.48894e-11, global = -1.9768e-13, cumulative = -1.48485e-07
DICPCG:  Solving for p, Initial residual = 4.13112e-05, Final residual = 9.90637e-07, No Iterations 77
time step continuity errors : sum local = 1.96991e-12, global = 1.55641e-13, cumulative = -1.48485e-07
ExecutionTime = 4685.94 s  ClockTime = 4696 s

Time = 0.9996

Courant Number mean: 0.118166 max: 0.317316
smoothSolver:  Solving for Ux, Initial residual = 4.74677e-06, Final residual = 4.74677e-06, No Iterations 0
smoothSolver:  Solving for Uz, Initial residual = 8.35507e-06, Final residual = 8.35507e-06, No Iterations 0
DICPCG:  Solving for p, Initial residual = 0.000254769, Final residual = 1.2599e-05, No Iterations 5
time step continuity errors : sum local = 2.50536e-11, global = -2.19716e-13, cumulative = -1.48485e-07
DICPCG:  Solving for p, Initial residual = 4.14464e-05, Final residual = 9.74987e-07, No Iterations 49
time step continuity errors : sum local = 1.93881e-12, global = 1.28135e-13, cumulative = -1.48485e-07
ExecutionTime = 4686.27 s  ClockTime = 4696 s

Time = 0.9997

Courant Number mean: 0.118166 max: 0.317316
smoothSolver:  Solving for Ux, Initial residual = 4.74281e-06, Final residual = 4.74281e-06, No Iterations 0
smoothSolver:  Solving for Uz, Initial residual = 8.35143e-06, Final residual = 8.35143e-06, No Iterations 0
DICPCG:  Solving for p, Initial residual = 0.00025465, Final residual = 9.29089e-06, No Iterations 9
time step continuity errors : sum local = 1.84753e-11, global = -3.70631e-13, cumulative = -1.48485e-07
DICPCG:  Solving for p, Initial residual = 4.15919e-05, Final residual = 9.98043e-07, No Iterations 44
time step continuity errors : sum local = 1.98464e-12, global = 4.70676e-14, cumulative = -1.48485e-07
ExecutionTime = 4686.59 s  ClockTime = 4696 s

Time = 0.9998

Courant Number mean: 0.118166 max: 0.317316
smoothSolver:  Solving for Ux, Initial residual = 4.73898e-06, Final residual = 4.73898e-06, No Iterations 0
smoothSolver:  Solving for Uz, Initial residual = 8.34661e-06, Final residual = 8.34661e-06, No Iterations 0
DICPCG:  Solving for p, Initial residual = 0.000254378, Final residual = 1.23765e-05, No Iterations 5
time step continuity errors : sum local = 2.46113e-11, global = -4.54904e-13, cumulative = -1.48485e-07
DICPCG:  Solving for p, Initial residual = 4.13197e-05, Final residual = 9.95123e-07, No Iterations 121
time step continuity errors : sum local = 1.97885e-12, global = -1.96587e-14, cumulative = -1.48486e-07
ExecutionTime = 4687.29 s  ClockTime = 4697 s

Time = 0.9999

Courant Number mean: 0.118166 max: 0.317316
smoothSolver:  Solving for Ux, Initial residual = 4.73591e-06, Final residual = 4.73591e-06, No Iterations 0
smoothSolver:  Solving for Uz, Initial residual = 8.34823e-06, Final residual = 8.34823e-06, No Iterations 0
DICPCG:  Solving for p, Initial residual = 0.000254624, Final residual = 1.25676e-05, No Iterations 5
time step continuity errors : sum local = 2.49911e-11, global = -5.16797e-13, cumulative = -1.48486e-07
DICPCG:  Solving for p, Initial residual = 4.14782e-05, Final residual = 9.70316e-07, No Iterations 75
time step continuity errors : sum local = 1.9295e-12, global = -1.86864e-13, cumulative = -1.48486e-07
ExecutionTime = 4687.74 s  ClockTime = 4697 s

Time = 1

Courant Number mean: 0.118166 max: 0.317316
smoothSolver:  Solving for Ux, Initial residual = 4.73189e-06, Final residual = 4.73189e-06, No Iterations 0
smoothSolver:  Solving for Uz, Initial residual = 8.34152e-06, Final residual = 8.34152e-06, No Iterations 0
DICPCG:  Solving for p, Initial residual = 0.000254659, Final residual = 1.25853e-05, No Iterations 5
time step continuity errors : sum local = 2.50264e-11, global = -7.88426e-13, cumulative = -1.48487e-07
DICPCG:  Solving for p, Initial residual = 4.14183e-05, Final residual = 9.73759e-07, No Iterations 291
time step continuity errors : sum local = 1.93636e-12, global = -1.82452e-14, cumulative = -1.48487e-07
ExecutionTime = 4689.55 s  ClockTime = 4699 s

End

