/*---------------------------------------------------------------------------*\
| =========                 |                                                 |
| \\      /  F ield         | OpenFOAM: The Open Source CFD Toolbox           |
|  \\    /   O peration     | Version:  2406                                  |
|   \\  /    A nd           | Website:  www.openfoam.com                      |
|    \\/     M anipulation  |                                                 |
\*---------------------------------------------------------------------------*/
Build  : _be01ca78-20240625 OPENFOAM=2406 version=2406
Arch   : "LSB;label=32;scalar=64"
Exec   : icoFoam
Date   : May 11 2025
Time   : 19:33:11
Host   : dia-iam-062
PID    : 3614
I/O    : uncollated
Case   : /home/corsi/corsoCFD_2025/stefano/cavity_bis
nProcs : 1
trapFpe: Floating point exception trapping enabled (FOAM_SIGFPE).
fileModificationChecking : Monitoring run-time modified files using timeStampMaster (fileModificationSkew 5, maxFileModificationPolls 20)
allowSystemOperations : Allowing user-supplied system call operations

// * * * * * * * * * * * * * * * * * * * * * * * * * * * * * * * * * * * * * //
Create time

Create mesh for time = 15


PISO: Operating solver in PISO mode

Reading transportProperties

Reading field p

Reading field U

Reading/calculating face flux field phi


Starting time loop

Time = 15.001

Courant Number mean: 0.0411166 max: 0.391687
smoothSolver:  Solving for Ux, Initial residual = 1.69355e-05, Final residual = 8.92632e-08, No Iterations 1
smoothSolver:  Solving for Uy, Initial residual = 1.8256e-05, Final residual = 9.68633e-08, No Iterations 1
DICPCG:  Solving for p, Initial residual = 0.002855, Final residual = 8.95116e-05, No Iterations 3
time step continuity errors : sum local = 6.54375e-10, global = 2.6192e-20, cumulative = 1.0824e-21
DICPCG:  Solving for p, Initial residual = 0.000148325, Final residual = 9.90128e-07, No Iterations 106
time step continuity errors : sum local = 7.65139e-12, global = 5.12049e-21, cumulative = 6.20288e-21
ExecutionTime = 0.77 s  ClockTime = 1 s

Time = 15.002

Courant Number mean: 0.0411176 max: 0.391687
smoothSolver:  Solving for Ux, Initial residual = 1.69305e-05, Final residual = 8.9226e-08, No Iterations 1
smoothSolver:  Solving for Uy, Initial residual = 1.82523e-05, Final residual = 9.68829e-08, No Iterations 1
DICPCG:  Solving for p, Initial residual = 0.00259601, Final residual = 9.57325e-05, No Iterations 3
time step continuity errors : sum local = 6.99855e-10, global = 8.57398e-21, cumulative = 1.47769e-20
DICPCG:  Solving for p, Initial residual = 0.000153951, Final residual = 9.73283e-07, No Iterations 116
time step continuity errors : sum local = 7.80396e-12, global = 1.21626e-20, cumulative = 2.69395e-20
ExecutionTime = 0.89 s  ClockTime = 1 s

Time = 15.003

Courant Number mean: 0.0411186 max: 0.391687
smoothSolver:  Solving for Ux, Initial residual = 1.69278e-05, Final residual = 8.92152e-08, No Iterations 1
smoothSolver:  Solving for Uy, Initial residual = 1.82474e-05, Final residual = 9.68029e-08, No Iterations 1
DICPCG:  Solving for p, Initial residual = 4.24403e-05, Final residual = 2.03514e-06, No Iterations 60
time step continuity errors : sum local = 1.60193e-11, global = 3.96373e-23, cumulative = 2.69792e-20
DICPCG:  Solving for p, Initial residual = 6.76133e-06, Final residual = 9.7021e-07, No Iterations 56
time step continuity errors : sum local = 8.05926e-12, global = -2.16735e-21, cumulative = 2.48118e-20
ExecutionTime = 1.01 s  ClockTime = 1 s

Time = 15.004

Courant Number mean: 0.0411196 max: 0.391687
smoothSolver:  Solving for Ux, Initial residual = 1.69256e-05, Final residual = 8.92012e-08, No Iterations 1
smoothSolver:  Solving for Uy, Initial residual = 1.82436e-05, Final residual = 9.6789e-08, No Iterations 1
DICPCG:  Solving for p, Initial residual = 3.48109e-05, Final residual = 1.67364e-06, No Iterations 107
time step continuity errors : sum local = 1.35323e-11, global = -5.87129e-21, cumulative = 1.89405e-20
DICPCG:  Solving for p, Initial residual = 5.73928e-06, Final residual = 9.56333e-07, No Iterations 207
time step continuity errors : sum local = 6.98401e-12, global = -1.29224e-20, cumulative = 6.01812e-21
ExecutionTime = 1.28 s  ClockTime = 2 s

Time = 15.005

Courant Number mean: 0.0411205 max: 0.391687
smoothSolver:  Solving for Ux, Initial residual = 1.69218e-05, Final residual = 8.91809e-08, No Iterations 1
smoothSolver:  Solving for Uy, Initial residual = 1.82417e-05, Final residual = 9.67839e-08, No Iterations 1
DICPCG:  Solving for p, Initial residual = 3.05572e-05, Final residual = 1.49864e-06, No Iterations 95
time step continuity errors : sum local = 1.16891e-11, global = -1.284e-20, cumulative = -6.8219e-21
DICPCG:  Solving for p, Initial residual = 5.32182e-06, Final residual = 9.51687e-07, No Iterations 89
time step continuity errors : sum local = 7.69246e-12, global = -6.30433e-21, cumulative = -1.31262e-20
ExecutionTime = 1.45 s  ClockTime = 2 s

Time = 15.006

Courant Number mean: 0.0411215 max: 0.391687
smoothSolver:  Solving for Ux, Initial residual = 1.69197e-05, Final residual = 8.91766e-08, No Iterations 1
smoothSolver:  Solving for Uy, Initial residual = 1.82382e-05, Final residual = 9.67698e-08, No Iterations 1
DICPCG:  Solving for p, Initial residual = 2.75209e-05, Final residual = 1.3519e-06, No Iterations 99
time step continuity errors : sum local = 1.08746e-11, global = 1.67428e-20, cumulative = 3.6166e-21
DICPCG:  Solving for p, Initial residual = 5.06696e-06, Final residual = 9.88164e-07, No Iterations 204
time step continuity errors : sum local = 7.24877e-12, global = 1.72511e-21, cumulative = 5.34171e-21
ExecutionTime = 1.7 s  ClockTime = 2 s

Time = 15.007

Courant Number mean: 0.0411225 max: 0.391687
smoothSolver:  Solving for Ux, Initial residual = 1.69175e-05, Final residual = 8.91667e-08, No Iterations 1
smoothSolver:  Solving for Uy, Initial residual = 1.82355e-05, Final residual = 9.67607e-08, No Iterations 1
DICPCG:  Solving for p, Initial residual = 2.56282e-05, Final residual = 1.21212e-06, No Iterations 109
time step continuity errors : sum local = 9.83414e-12, global = -2.44497e-20, cumulative = -1.9108e-20
DICPCG:  Solving for p, Initial residual = 4.93471e-06, Final residual = 9.29698e-07, No Iterations 88
time step continuity errors : sum local = 7.52792e-12, global = 2.89986e-21, cumulative = -1.62082e-20
ExecutionTime = 1.88 s  ClockTime = 2 s

Time = 15.008

Courant Number mean: 0.0411235 max: 0.391687
smoothSolver:  Solving for Ux, Initial residual = 1.69155e-05, Final residual = 8.91626e-08, No Iterations 1
smoothSolver:  Solving for Uy, Initial residual = 1.82321e-05, Final residual = 9.67452e-08, No Iterations 1
DICPCG:  Solving for p, Initial residual = 2.43572e-05, Final residual = 1.13163e-06, No Iterations 219
time step continuity errors : sum local = 8.28051e-12, global = 2.27168e-20, cumulative = 6.50862e-21
DICPCG:  Solving for p, Initial residual = 4.8728e-06, Final residual = 9.92313e-07, No Iterations 83
time step continuity errors : sum local = 7.64037e-12, global = 5.77635e-21, cumulative = 1.2285e-20
ExecutionTime = 2.14 s  ClockTime = 3 s

Time = 15.009

Courant Number mean: 0.0411245 max: 0.391687
smoothSolver:  Solving for Ux, Initial residual = 1.6911e-05, Final residual = 8.91407e-08, No Iterations 1
smoothSolver:  Solving for Uy, Initial residual = 1.82297e-05, Final residual = 9.67392e-08, No Iterations 1
DICPCG:  Solving for p, Initial residual = 2.3587e-05, Final residual = 1.14262e-06, No Iterations 108
time step continuity errors : sum local = 9.37869e-12, global = 8.52191e-21, cumulative = 2.08069e-20
DICPCG:  Solving for p, Initial residual = 4.82399e-06, Final residual = 9.61902e-07, No Iterations 206
time step continuity errors : sum local = 7.04802e-12, global = -2.04389e-20, cumulative = 3.67944e-22
ExecutionTime = 2.4 s  ClockTime = 3 s

Time = 15.01

Courant Number mean: 0.0411255 max: 0.391687
smoothSolver:  Solving for Ux, Initial residual = 1.69096e-05, Final residual = 8.91366e-08, No Iterations 1
smoothSolver:  Solving for Uy, Initial residual = 1.82268e-05, Final residual = 9.67285e-08, No Iterations 1
DICPCG:  Solving for p, Initial residual = 2.25213e-05, Final residual = 1.09412e-06, No Iterations 107
time step continuity errors : sum local = 8.74776e-12, global = -5.4348e-21, cumulative = -5.06686e-21
DICPCG:  Solving for p, Initial residual = 4.72377e-06, Final residual = 9.46201e-07, No Iterations 86
time step continuity errors : sum local = 7.47746e-12, global = -1.19363e-20, cumulative = -1.70031e-20
ExecutionTime = 2.57 s  ClockTime = 3 s

Time = 15.011

Courant Number mean: 0.0411265 max: 0.391687
smoothSolver:  Solving for Ux, Initial residual = 1.69073e-05, Final residual = 8.91315e-08, No Iterations 1
smoothSolver:  Solving for Uy, Initial residual = 1.82234e-05, Final residual = 9.67133e-08, No Iterations 1
DICPCG:  Solving for p, Initial residual = 2.19973e-05, Final residual = 1.06201e-06, No Iterations 220
time step continuity errors : sum local = 7.76993e-12, global = -2.15645e-20, cumulative = -3.85676e-20
DICPCG:  Solving for p, Initial residual = 4.74158e-06, Final residual = 9.67145e-07, No Iterations 83
time step continuity errors : sum local = 7.40016e-12, global = 3.77118e-21, cumulative = -3.47964e-20
ExecutionTime = 2.83 s  ClockTime = 3 s

Time = 15.012

Courant Number mean: 0.0411274 max: 0.391687
smoothSolver:  Solving for Ux, Initial residual = 1.69033e-05, Final residual = 8.91125e-08, No Iterations 1
smoothSolver:  Solving for Uy, Initial residual = 1.82209e-05, Final residual = 9.67063e-08, No Iterations 1
DICPCG:  Solving for p, Initial residual = 2.17191e-05, Final residual = 1.03783e-06, No Iterations 106
time step continuity errors : sum local = 8.38891e-12, global = 5.85719e-22, cumulative = -3.42107e-20
DICPCG:  Solving for p, Initial residual = 4.67923e-06, Final residual = 9.98698e-07, No Iterations 89
time step continuity errors : sum local = 8.10052e-12, global = 7.5891e-21, cumulative = -2.66216e-20
ExecutionTime = 3 s  ClockTime = 3 s

Time = 15.013

Courant Number mean: 0.0411284 max: 0.391687
smoothSolver:  Solving for Ux, Initial residual = 1.69014e-05, Final residual = 8.91065e-08, No Iterations 1
smoothSolver:  Solving for Uy, Initial residual = 1.82179e-05, Final residual = 9.6695e-08, No Iterations 1
DICPCG:  Solving for p, Initial residual = 2.13931e-05, Final residual = 1.00973e-06, No Iterations 106
time step continuity errors : sum local = 8.20384e-12, global = 1.38327e-20, cumulative = -1.27889e-20
DICPCG:  Solving for p, Initial residual = 4.66843e-06, Final residual = 9.98211e-07, No Iterations 89
time step continuity errors : sum local = 8.12145e-12, global = -1.71586e-20, cumulative = -2.99475e-20
ExecutionTime = 3.18 s  ClockTime = 4 s

Time = 15.014

Courant Number mean: 0.0411294 max: 0.391687
smoothSolver:  Solving for Ux, Initial residual = 1.68988e-05, Final residual = 8.90974e-08, No Iterations 1
smoothSolver:  Solving for Uy, Initial residual = 1.82149e-05, Final residual = 9.66831e-08, No Iterations 1
DICPCG:  Solving for p, Initial residual = 2.15988e-05, Final residual = 1.07316e-06, No Iterations 98
time step continuity errors : sum local = 8.3758e-12, global = -1.89818e-20, cumulative = -4.89293e-20
DICPCG:  Solving for p, Initial residual = 4.72465e-06, Final residual = 9.68821e-07, No Iterations 86
time step continuity errors : sum local = 7.65221e-12, global = 1.14207e-20, cumulative = -3.75086e-20
ExecutionTime = 3.35 s  ClockTime = 4 s

Time = 15.015

Courant Number mean: 0.0411304 max: 0.391687
smoothSolver:  Solving for Ux, Initial residual = 1.68961e-05, Final residual = 8.90876e-08, No Iterations 1
smoothSolver:  Solving for Uy, Initial residual = 1.8212e-05, Final residual = 9.66721e-08, No Iterations 1
DICPCG:  Solving for p, Initial residual = 2.16912e-05, Final residual = 1.05306e-06, No Iterations 96
time step continuity errors : sum local = 7.79895e-12, global = 9.38206e-21, cumulative = -2.81266e-20
DICPCG:  Solving for p, Initial residual = 4.75913e-06, Final residual = 9.96626e-07, No Iterations 58
time step continuity errors : sum local = 7.47896e-12, global = 1.71045e-20, cumulative = -1.10221e-20
ExecutionTime = 3.49 s  ClockTime = 4 s

Time = 15.016

Courant Number mean: 0.0411314 max: 0.391687
smoothSolver:  Solving for Ux, Initial residual = 1.68932e-05, Final residual = 8.90767e-08, No Iterations 1
smoothSolver:  Solving for Uy, Initial residual = 1.8209e-05, Final residual = 9.66624e-08, No Iterations 1
DICPCG:  Solving for p, Initial residual = 2.1084e-05, Final residual = 1.04114e-06, No Iterations 93
time step continuity errors : sum local = 7.93556e-12, global = -2.40505e-21, cumulative = -1.34271e-20
DICPCG:  Solving for p, Initial residual = 4.71251e-06, Final residual = 9.87853e-07, No Iterations 60
time step continuity errors : sum local = 7.41998e-12, global = -7.74352e-21, cumulative = -2.11706e-20
ExecutionTime = 3.64 s  ClockTime = 4 s

Time = 15.017

Courant Number mean: 0.0411324 max: 0.391687
smoothSolver:  Solving for Ux, Initial residual = 1.68911e-05, Final residual = 8.90697e-08, No Iterations 1
smoothSolver:  Solving for Uy, Initial residual = 1.8206e-05, Final residual = 9.66496e-08, No Iterations 1
DICPCG:  Solving for p, Initial residual = 2.08511e-05, Final residual = 9.8664e-07, No Iterations 107
time step continuity errors : sum local = 7.92953e-12, global = -8.44204e-21, cumulative = -2.96127e-20
DICPCG:  Solving for p, Initial residual = 4.64801e-06, Final residual = 9.97055e-07, No Iterations 85
time step continuity errors : sum local = 7.81873e-12, global = -3.20799e-20, cumulative = -6.16925e-20
ExecutionTime = 3.81 s  ClockTime = 4 s

Time = 15.018

Courant Number mean: 0.0411334 max: 0.391687
smoothSolver:  Solving for Ux, Initial residual = 1.68888e-05, Final residual = 8.90611e-08, No Iterations 1
smoothSolver:  Solving for Uy, Initial residual = 1.82032e-05, Final residual = 9.66372e-08, No Iterations 1
DICPCG:  Solving for p, Initial residual = 2.07569e-05, Final residual = 1.03007e-06, No Iterations 220
time step continuity errors : sum local = 7.53077e-12, global = -5.33276e-21, cumulative = -6.70253e-20
DICPCG:  Solving for p, Initial residual = 4.68928e-06, Final residual = 9.85615e-07, No Iterations 83
time step continuity errors : sum local = 7.49464e-12, global = -4.36144e-21, cumulative = -7.13867e-20
ExecutionTime = 4.07 s  ClockTime = 4 s

Time = 15.019

Courant Number mean: 0.0411343 max: 0.391687
smoothSolver:  Solving for Ux, Initial residual = 1.6885e-05, Final residual = 8.90448e-08, No Iterations 1
smoothSolver:  Solving for Uy, Initial residual = 1.82003e-05, Final residual = 9.66289e-08, No Iterations 1
DICPCG:  Solving for p, Initial residual = 2.07702e-05, Final residual = 1.01044e-06, No Iterations 105
time step continuity errors : sum local = 8.0861e-12, global = 1.309e-20, cumulative = -5.82968e-20
DICPCG:  Solving for p, Initial residual = 4.62431e-06, Final residual = 9.80492e-07, No Iterations 87
time step continuity errors : sum local = 7.88978e-12, global = -1.16564e-20, cumulative = -6.99531e-20
ExecutionTime = 4.24 s  ClockTime = 5 s

Time = 15.02

Courant Number mean: 0.0411353 max: 0.391687
smoothSolver:  Solving for Ux, Initial residual = 1.68829e-05, Final residual = 8.90383e-08, No Iterations 1
smoothSolver:  Solving for Uy, Initial residual = 1.81973e-05, Final residual = 9.66174e-08, No Iterations 1
DICPCG:  Solving for p, Initial residual = 2.06346e-05, Final residual = 1.02462e-06, No Iterations 105
time step continuity errors : sum local = 8.20266e-12, global = -3.53543e-21, cumulative = -7.34886e-20
DICPCG:  Solving for p, Initial residual = 4.62146e-06, Final residual = 9.80448e-07, No Iterations 87
time step continuity errors : sum local = 7.91425e-12, global = 8.19797e-21, cumulative = -6.52906e-20
ExecutionTime = 4.42 s  ClockTime = 5 s

Time = 15.021

Courant Number mean: 0.0411363 max: 0.391687
smoothSolver:  Solving for Ux, Initial residual = 1.68804e-05, Final residual = 8.90294e-08, No Iterations 1
smoothSolver:  Solving for Uy, Initial residual = 1.81943e-05, Final residual = 9.66055e-08, No Iterations 1
DICPCG:  Solving for p, Initial residual = 2.03571e-05, Final residual = 1.01202e-06, No Iterations 100
time step continuity errors : sum local = 7.84518e-12, global = -8.11241e-22, cumulative = -6.61018e-20
DICPCG:  Solving for p, Initial residual = 4.59881e-06, Final residual = 9.8055e-07, No Iterations 85
time step continuity errors : sum local = 7.67339e-12, global = 3.89716e-21, cumulative = -6.22047e-20
ExecutionTime = 4.59 s  ClockTime = 5 s

Time = 15.022

Courant Number mean: 0.0411373 max: 0.391687
smoothSolver:  Solving for Ux, Initial residual = 1.68778e-05, Final residual = 8.90198e-08, No Iterations 1
smoothSolver:  Solving for Uy, Initial residual = 1.81914e-05, Final residual = 9.65946e-08, No Iterations 1
DICPCG:  Solving for p, Initial residual = 2.06118e-05, Final residual = 1.01109e-06, No Iterations 97
time step continuity errors : sum local = 7.43727e-12, global = 2.79085e-21, cumulative = -5.94138e-20
DICPCG:  Solving for p, Initial residual = 4.6417e-06, Final residual = 9.53994e-07, No Iterations 60
time step continuity errors : sum local = 7.10332e-12, global = 1.45201e-20, cumulative = -4.48937e-20
ExecutionTime = 4.74 s  ClockTime = 5 s

Time = 15.023

Courant Number mean: 0.0411383 max: 0.391687
smoothSolver:  Solving for Ux, Initial residual = 1.68749e-05, Final residual = 8.90089e-08, No Iterations 1
smoothSolver:  Solving for Uy, Initial residual = 1.81884e-05, Final residual = 9.65849e-08, No Iterations 1
DICPCG:  Solving for p, Initial residual = 2.0503e-05, Final residual = 1.01047e-06, No Iterations 97
time step continuity errors : sum local = 7.75681e-12, global = 1.4325e-20, cumulative = -3.05687e-20
DICPCG:  Solving for p, Initial residual = 4.65204e-06, Final residual = 9.74979e-07, No Iterations 60
time step continuity errors : sum local = 7.36542e-12, global = 1.28531e-20, cumulative = -1.77156e-20
ExecutionTime = 4.89 s  ClockTime = 5 s

Time = 15.024

Courant Number mean: 0.0411393 max: 0.391687
smoothSolver:  Solving for Ux, Initial residual = 1.68727e-05, Final residual = 8.90013e-08, No Iterations 1
smoothSolver:  Solving for Uy, Initial residual = 1.81854e-05, Final residual = 9.65723e-08, No Iterations 1
DICPCG:  Solving for p, Initial residual = 2.03273e-05, Final residual = 9.64831e-07, No Iterations 107
time step continuity errors : sum local = 7.78646e-12, global = 2.01058e-20, cumulative = 2.39022e-21
DICPCG:  Solving for p, Initial residual = 4.61181e-06, Final residual = 9.17742e-07, No Iterations 86
time step continuity errors : sum local = 7.26147e-12, global = -1.92399e-20, cumulative = -1.68496e-20
ExecutionTime = 5.06 s  ClockTime = 5 s

Time = 15.025

Courant Number mean: 0.0411402 max: 0.391687
smoothSolver:  Solving for Ux, Initial residual = 1.68705e-05, Final residual = 8.89933e-08, No Iterations 1
smoothSolver:  Solving for Uy, Initial residual = 1.81825e-05, Final residual = 9.65596e-08, No Iterations 1
DICPCG:  Solving for p, Initial residual = 2.05089e-05, Final residual = 1.00568e-06, No Iterations 220
time step continuity errors : sum local = 7.35258e-12, global = 2.51903e-22, cumulative = -1.65977e-20
DICPCG:  Solving for p, Initial residual = 4.6713e-06, Final residual = 9.82592e-07, No Iterations 83
time step continuity errors : sum local = 7.47238e-12, global = -1.66694e-20, cumulative = -3.32671e-20
ExecutionTime = 5.4 s  ClockTime = 6 s

Time = 15.026

Courant Number mean: 0.0411412 max: 0.391687
smoothSolver:  Solving for Ux, Initial residual = 1.68666e-05, Final residual = 8.89767e-08, No Iterations 1
smoothSolver:  Solving for Uy, Initial residual = 1.81797e-05, Final residual = 9.65512e-08, No Iterations 1
DICPCG:  Solving for p, Initial residual = 2.05759e-05, Final residual = 1.01545e-06, No Iterations 104
time step continuity errors : sum local = 8.12488e-12, global = 1.00117e-20, cumulative = -2.32554e-20
DICPCG:  Solving for p, Initial residual = 4.63586e-06, Final residual = 9.78095e-07, No Iterations 87
time step continuity errors : sum local = 7.87916e-12, global = 3.18958e-21, cumulative = -2.00658e-20
ExecutionTime = 5.57 s  ClockTime = 6 s

Time = 15.027

Courant Number mean: 0.0411422 max: 0.391687
smoothSolver:  Solving for Ux, Initial residual = 1.68645e-05, Final residual = 8.89704e-08, No Iterations 1
smoothSolver:  Solving for Uy, Initial residual = 1.81767e-05, Final residual = 9.65397e-08, No Iterations 1
DICPCG:  Solving for p, Initial residual = 2.04456e-05, Final residual = 9.42592e-07, No Iterations 106
time step continuity errors : sum local = 7.62785e-12, global = 2.67953e-20, cumulative = 6.72946e-21
DICPCG:  Solving for p, Initial residual = 4.58424e-06, Final residual = 9.64699e-07, No Iterations 87
time step continuity errors : sum local = 7.80822e-12, global = -6.31563e-21, cumulative = 4.13832e-22
ExecutionTime = 5.74 s  ClockTime = 6 s

Time = 15.028

Courant Number mean: 0.0411432 max: 0.391687
smoothSolver:  Solving for Ux, Initial residual = 1.68621e-05, Final residual = 8.89615e-08, No Iterations 1
smoothSolver:  Solving for Uy, Initial residual = 1.81736e-05, Final residual = 9.65277e-08, No Iterations 1
DICPCG:  Solving for p, Initial residual = 2.02311e-05, Final residual = 1.00194e-06, No Iterations 103
time step continuity errors : sum local = 7.78026e-12, global = 5.01665e-21, cumulative = 5.43048e-21
DICPCG:  Solving for p, Initial residual = 4.594e-06, Final residual = 9.79237e-07, No Iterations 85
time step continuity errors : sum local = 7.67148e-12, global = 2.80743e-21, cumulative = 8.23791e-21
ExecutionTime = 5.92 s  ClockTime = 6 s

Time = 15.029

Courant Number mean: 0.0411442 max: 0.391687
smoothSolver:  Solving for Ux, Initial residual = 1.68594e-05, Final residual = 8.8952e-08, No Iterations 1
smoothSolver:  Solving for Uy, Initial residual = 1.81707e-05, Final residual = 9.65167e-08, No Iterations 1
DICPCG:  Solving for p, Initial residual = 2.05177e-05, Final residual = 1.01587e-06, No Iterations 96
time step continuity errors : sum local = 7.4653e-12, global = -1.07744e-20, cumulative = -2.53644e-21
DICPCG:  Solving for p, Initial residual = 4.66132e-06, Final residual = 9.95247e-07, No Iterations 58
time step continuity errors : sum local = 7.4204e-12, global = -1.79731e-20, cumulative = -2.05095e-20
ExecutionTime = 6.06 s  ClockTime = 6 s

Time = 15.03

Courant Number mean: 0.0411452 max: 0.391687
smoothSolver:  Solving for Ux, Initial residual = 1.68565e-05, Final residual = 8.89408e-08, No Iterations 1
smoothSolver:  Solving for Uy, Initial residual = 1.81678e-05, Final residual = 9.65073e-08, No Iterations 1
DICPCG:  Solving for p, Initial residual = 2.03898e-05, Final residual = 1.01616e-06, No Iterations 96
time step continuity errors : sum local = 7.79246e-12, global = 1.34986e-20, cumulative = -7.01086e-21
DICPCG:  Solving for p, Initial residual = 4.66233e-06, Final residual = 9.49527e-07, No Iterations 61
time step continuity errors : sum local = 7.16444e-12, global = -9.13382e-21, cumulative = -1.61447e-20
ExecutionTime = 6.21 s  ClockTime = 7 s

Time = 15.031

Courant Number mean: 0.0411462 max: 0.391687
smoothSolver:  Solving for Ux, Initial residual = 1.68544e-05, Final residual = 8.89336e-08, No Iterations 1
smoothSolver:  Solving for Uy, Initial residual = 1.81648e-05, Final residual = 9.64944e-08, No Iterations 1
DICPCG:  Solving for p, Initial residual = 2.04701e-05, Final residual = 1.01002e-06, No Iterations 106
time step continuity errors : sum local = 8.12054e-12, global = -1.11874e-20, cumulative = -2.7332e-20
DICPCG:  Solving for p, Initial residual = 4.63997e-06, Final residual = 9.94066e-07, No Iterations 85
time step continuity errors : sum local = 7.81098e-12, global = 1.05576e-20, cumulative = -1.67745e-20
ExecutionTime = 6.39 s  ClockTime = 7 s

Time = 15.032

Courant Number mean: 0.0411471 max: 0.391687
smoothSolver:  Solving for Ux, Initial residual = 1.68521e-05, Final residual = 8.89252e-08, No Iterations 1
smoothSolver:  Solving for Uy, Initial residual = 1.8162e-05, Final residual = 9.64817e-08, No Iterations 1
DICPCG:  Solving for p, Initial residual = 2.05892e-05, Final residual = 1.00841e-06, No Iterations 108
time step continuity errors : sum local = 8.33253e-12, global = 2.98317e-20, cumulative = 1.30572e-20
DICPCG:  Solving for p, Initial residual = 4.68907e-06, Final residual = 9.87478e-07, No Iterations 87
time step continuity errors : sum local = 7.98508e-12, global = 1.15399e-20, cumulative = 2.45971e-20
ExecutionTime = 6.56 s  ClockTime = 7 s

Time = 15.033

Courant Number mean: 0.0411481 max: 0.391687
smoothSolver:  Solving for Ux, Initial residual = 1.68492e-05, Final residual = 8.89142e-08, No Iterations 1
smoothSolver:  Solving for Uy, Initial residual = 1.81589e-05, Final residual = 9.64719e-08, No Iterations 1
DICPCG:  Solving for p, Initial residual = 2.07822e-05, Final residual = 1.03475e-06, No Iterations 219
time step continuity errors : sum local = 7.5771e-12, global = -6.44801e-22, cumulative = 2.39523e-20
DICPCG:  Solving for p, Initial residual = 4.68266e-06, Final residual = 9.40991e-07, No Iterations 83
time step continuity errors : sum local = 7.18212e-12, global = -2.88314e-20, cumulative = -4.87905e-21
ExecutionTime = 6.82 s  ClockTime = 7 s

Time = 15.034

Courant Number mean: 0.0411491 max: 0.391687
smoothSolver:  Solving for Ux, Initial residual = 1.68454e-05, Final residual = 8.88979e-08, No Iterations 1
smoothSolver:  Solving for Uy, Initial residual = 1.81562e-05, Final residual = 9.64627e-08, No Iterations 1
DICPCG:  Solving for p, Initial residual = 2.06421e-05, Final residual = 9.88596e-07, No Iterations 107
time step continuity errors : sum local = 8.12369e-12, global = 4.91302e-21, cumulative = 3.39705e-23
DICPCG:  Solving for p, Initial residual = 4.63883e-06, Final residual = 9.90131e-07, No Iterations 96
time step continuity errors : sum local = 8.10343e-12, global = -7.2225e-21, cumulative = -7.18853e-21
ExecutionTime = 7 s  ClockTime = 7 s

Time = 15.035

Courant Number mean: 0.0411501 max: 0.391687
smoothSolver:  Solving for Ux, Initial residual = 1.68437e-05, Final residual = 8.88918e-08, No Iterations 1
smoothSolver:  Solving for Uy, Initial residual = 1.81531e-05, Final residual = 9.64518e-08, No Iterations 1
DICPCG:  Solving for p, Initial residual = 2.10134e-05, Final residual = 1.01475e-06, No Iterations 107
time step continuity errors : sum local = 8.3656e-12, global = -8.42778e-21, cumulative = -1.56163e-20
DICPCG:  Solving for p, Initial residual = 4.68027e-06, Final residual = 9.68653e-07, No Iterations 206
time step continuity errors : sum local = 7.09915e-12, global = 9.22388e-22, cumulative = -1.46939e-20
ExecutionTime = 7.27 s  ClockTime = 8 s

Time = 15.036

Courant Number mean: 0.0411511 max: 0.391687
smoothSolver:  Solving for Ux, Initial residual = 1.68413e-05, Final residual = 8.88852e-08, No Iterations 1
smoothSolver:  Solving for Uy, Initial residual = 1.81502e-05, Final residual = 9.64391e-08, No Iterations 1
DICPCG:  Solving for p, Initial residual = 2.05933e-05, Final residual = 9.72274e-07, No Iterations 220
time step continuity errors : sum local = 7.11404e-12, global = 2.4092e-20, cumulative = 9.3981e-21
DICPCG:  Solving for p, Initial residual = 4.65466e-06, Final residual = 9.62459e-07, No Iterations 83
time step continuity errors : sum local = 7.36815e-12, global = -1.6298e-20, cumulative = -6.89986e-21
ExecutionTime = 7.52 s  ClockTime = 8 s

Time = 15.037

Courant Number mean: 0.041152 max: 0.391687
smoothSolver:  Solving for Ux, Initial residual = 1.68382e-05, Final residual = 8.8874e-08, No Iterations 1
smoothSolver:  Solving for Uy, Initial residual = 1.81471e-05, Final residual = 9.64264e-08, No Iterations 1
DICPCG:  Solving for p, Initial residual = 2.07302e-05, Final residual = 1.00553e-06, No Iterations 96
time step continuity errors : sum local = 7.73327e-12, global = -3.07659e-22, cumulative = -7.20751e-21
DICPCG:  Solving for p, Initial residual = 4.72855e-06, Final residual = 9.75964e-07, No Iterations 61
time step continuity errors : sum local = 7.58504e-12, global = -1.77127e-20, cumulative = -2.49202e-20
ExecutionTime = 7.67 s  ClockTime = 8 s

Time = 15.038

Courant Number mean: 0.041153 max: 0.391687
smoothSolver:  Solving for Ux, Initial residual = 1.68353e-05, Final residual = 8.88617e-08, No Iterations 1
smoothSolver:  Solving for Uy, Initial residual = 1.81443e-05, Final residual = 9.64188e-08, No Iterations 1
DICPCG:  Solving for p, Initial residual = 2.06972e-05, Final residual = 1.00956e-06, No Iterations 90
time step continuity errors : sum local = 7.66341e-12, global = 2.55172e-21, cumulative = -2.23684e-20
DICPCG:  Solving for p, Initial residual = 4.67821e-06, Final residual = 9.74551e-07, No Iterations 60
time step continuity errors : sum local = 7.48028e-12, global = 8.00873e-22, cumulative = -2.15676e-20
ExecutionTime = 7.82 s  ClockTime = 8 s

Time = 15.039

Courant Number mean: 0.041154 max: 0.391687
smoothSolver:  Solving for Ux, Initial residual = 1.68332e-05, Final residual = 8.88549e-08, No Iterations 1
smoothSolver:  Solving for Uy, Initial residual = 1.81413e-05, Final residual = 9.64055e-08, No Iterations 1
DICPCG:  Solving for p, Initial residual = 2.03367e-05, Final residual = 9.64174e-07, No Iterations 97
time step continuity errors : sum local = 7.087e-12, global = 9.84388e-21, cumulative = -1.17237e-20
DICPCG:  Solving for p, Initial residual = 4.6116e-06, Final residual = 9.86629e-07, No Iterations 59
time step continuity errors : sum local = 7.34833e-12, global = -7.85543e-21, cumulative = -1.95791e-20
ExecutionTime = 7.97 s  ClockTime = 8 s

Time = 15.04

Courant Number mean: 0.041155 max: 0.391687
smoothSolver:  Solving for Ux, Initial residual = 1.68305e-05, Final residual = 8.88446e-08, No Iterations 1
smoothSolver:  Solving for Uy, Initial residual = 1.81385e-05, Final residual = 9.63952e-08, No Iterations 1
DICPCG:  Solving for p, Initial residual = 2.0298e-05, Final residual = 9.69756e-07, No Iterations 97
time step continuity errors : sum local = 7.37186e-12, global = -7.33444e-22, cumulative = -2.03126e-20
DICPCG:  Solving for p, Initial residual = 4.61082e-06, Final residual = 9.78073e-07, No Iterations 59
time step continuity errors : sum local = 7.312e-12, global = -2.15221e-21, cumulative = -2.24648e-20
ExecutionTime = 8.11 s  ClockTime = 9 s

Time = 15.041

Courant Number mean: 0.041156 max: 0.391687
smoothSolver:  Solving for Ux, Initial residual = 1.6828e-05, Final residual = 8.88356e-08, No Iterations 1
smoothSolver:  Solving for Uy, Initial residual = 1.81355e-05, Final residual = 9.63835e-08, No Iterations 1
DICPCG:  Solving for p, Initial residual = 2.01577e-05, Final residual = 9.3522e-07, No Iterations 106
time step continuity errors : sum local = 7.44506e-12, global = -1.27443e-21, cumulative = -2.37392e-20
DICPCG:  Solving for p, Initial residual = 4.57834e-06, Final residual = 9.44854e-07, No Iterations 84
time step continuity errors : sum local = 7.3479e-12, global = 7.4943e-21, cumulative = -1.62449e-20
ExecutionTime = 8.29 s  ClockTime = 9 s

Time = 15.042

Courant Number mean: 0.041157 max: 0.391687
smoothSolver:  Solving for Ux, Initial residual = 1.68258e-05, Final residual = 8.88279e-08, No Iterations 1
smoothSolver:  Solving for Uy, Initial residual = 1.81326e-05, Final residual = 9.63704e-08, No Iterations 1
DICPCG:  Solving for p, Initial residual = 2.04888e-05, Final residual = 1.01619e-06, No Iterations 107
time step continuity errors : sum local = 8.2749e-12, global = -6.88171e-21, cumulative = -2.31266e-20
DICPCG:  Solving for p, Initial residual = 4.63531e-06, Final residual = 9.92591e-07, No Iterations 86
time step continuity errors : sum local = 7.91326e-12, global = 7.25127e-21, cumulative = -1.58753e-20
ExecutionTime = 8.46 s  ClockTime = 9 s

Time = 15.043

Courant Number mean: 0.0411579 max: 0.391687
smoothSolver:  Solving for Ux, Initial residual = 1.6823e-05, Final residual = 8.8817e-08, No Iterations 1
smoothSolver:  Solving for Uy, Initial residual = 1.81295e-05, Final residual = 9.63606e-08, No Iterations 1
DICPCG:  Solving for p, Initial residual = 2.04317e-05, Final residual = 9.86396e-07, No Iterations 220
time step continuity errors : sum local = 7.21534e-12, global = -1.78553e-20, cumulative = -3.37306e-20
DICPCG:  Solving for p, Initial residual = 4.64692e-06, Final residual = 9.84774e-07, No Iterations 82
time step continuity errors : sum local = 7.48992e-12, global = -4.12066e-21, cumulative = -3.78513e-20
ExecutionTime = 8.71 s  ClockTime = 9 s

Time = 15.044

Courant Number mean: 0.0411589 max: 0.391687
smoothSolver:  Solving for Ux, Initial residual = 1.68192e-05, Final residual = 8.88012e-08, No Iterations 1
smoothSolver:  Solving for Uy, Initial residual = 1.81268e-05, Final residual = 9.63511e-08, No Iterations 1
DICPCG:  Solving for p, Initial residual = 2.05061e-05, Final residual = 9.59418e-07, No Iterations 106
time step continuity errors : sum local = 7.81062e-12, global = 2.31538e-20, cumulative = -1.46975e-20
DICPCG:  Solving for p, Initial residual = 4.60507e-06, Final residual = 9.63481e-07, No Iterations 89
time step continuity errors : sum local = 7.83661e-12, global = -1.10667e-20, cumulative = -2.57642e-20
ExecutionTime = 8.89 s  ClockTime = 9 s

Time = 15.045

Courant Number mean: 0.0411599 max: 0.391687
smoothSolver:  Solving for Ux, Initial residual = 1.68174e-05, Final residual = 8.87956e-08, No Iterations 1
smoothSolver:  Solving for Uy, Initial residual = 1.81238e-05, Final residual = 9.634e-08, No Iterations 1
DICPCG:  Solving for p, Initial residual = 2.03334e-05, Final residual = 9.93697e-07, No Iterations 106
time step continuity errors : sum local = 8.10493e-12, global = 5.38489e-21, cumulative = -2.03793e-20
DICPCG:  Solving for p, Initial residual = 4.58902e-06, Final residual = 9.88044e-07, No Iterations 89
time step continuity errors : sum local = 8.06312e-12, global = -6.30513e-21, cumulative = -2.66844e-20
ExecutionTime = 9.07 s  ClockTime = 9 s

Time = 15.046

Courant Number mean: 0.0411609 max: 0.391687
smoothSolver:  Solving for Ux, Initial residual = 1.68149e-05, Final residual = 8.87866e-08, No Iterations 1
smoothSolver:  Solving for Uy, Initial residual = 1.81208e-05, Final residual = 9.63276e-08, No Iterations 1
DICPCG:  Solving for p, Initial residual = 2.00873e-05, Final residual = 9.71892e-07, No Iterations 104
time step continuity errors : sum local = 7.64866e-12, global = -4.58925e-21, cumulative = -3.12737e-20
DICPCG:  Solving for p, Initial residual = 4.57276e-06, Final residual = 9.44047e-07, No Iterations 86
time step continuity errors : sum local = 7.4869e-12, global = 4.89359e-21, cumulative = -2.63801e-20
ExecutionTime = 9.24 s  ClockTime = 10 s

Time = 15.047

Courant Number mean: 0.0411619 max: 0.391687
smoothSolver:  Solving for Ux, Initial residual = 1.68123e-05, Final residual = 8.87772e-08, No Iterations 1
smoothSolver:  Solving for Uy, Initial residual = 1.81179e-05, Final residual = 9.63162e-08, No Iterations 1
DICPCG:  Solving for p, Initial residual = 2.03591e-05, Final residual = 9.94546e-07, No Iterations 97
time step continuity errors : sum local = 7.38909e-12, global = -4.17611e-22, cumulative = -2.67977e-20
DICPCG:  Solving for p, Initial residual = 4.62101e-06, Final residual = 9.55737e-07, No Iterations 60
time step continuity errors : sum local = 7.18434e-12, global = 3.37529e-21, cumulative = -2.34224e-20
ExecutionTime = 9.39 s  ClockTime = 10 s

Time = 15.048

Courant Number mean: 0.0411628 max: 0.391687
smoothSolver:  Solving for Ux, Initial residual = 1.68093e-05, Final residual = 8.87661e-08, No Iterations 1
smoothSolver:  Solving for Uy, Initial residual = 1.81149e-05, Final residual = 9.6307e-08, No Iterations 1
DICPCG:  Solving for p, Initial residual = 2.03404e-05, Final residual = 1.01691e-06, No Iterations 95
time step continuity errors : sum local = 7.74851e-12, global = 6.24483e-21, cumulative = -1.71776e-20
DICPCG:  Solving for p, Initial residual = 4.64858e-06, Final residual = 9.83738e-07, No Iterations 60
time step continuity errors : sum local = 7.38256e-12, global = 9.62898e-21, cumulative = -7.5486e-21
ExecutionTime = 9.54 s  ClockTime = 10 s

Time = 15.049

Courant Number mean: 0.0411638 max: 0.391687
smoothSolver:  Solving for Ux, Initial residual = 1.68072e-05, Final residual = 8.87587e-08, No Iterations 1
smoothSolver:  Solving for Uy, Initial residual = 1.81119e-05, Final residual = 9.62941e-08, No Iterations 1
DICPCG:  Solving for p, Initial residual = 2.03023e-05, Final residual = 9.75666e-07, No Iterations 106
time step continuity errors : sum local = 7.85185e-12, global = -4.75171e-22, cumulative = -8.02377e-21
DICPCG:  Solving for p, Initial residual = 4.59644e-06, Final residual = 9.84631e-07, No Iterations 85
time step continuity errors : sum local = 7.72702e-12, global = 1.53899e-21, cumulative = -6.48478e-21
ExecutionTime = 9.71 s  ClockTime = 10 s

Time = 15.05

Courant Number mean: 0.0411648 max: 0.391687
smoothSolver:  Solving for Ux, Initial residual = 1.68049e-05, Final residual = 8.87504e-08, No Iterations 1
smoothSolver:  Solving for Uy, Initial residual = 1.81091e-05, Final residual = 9.62815e-08, No Iterations 1
DICPCG:  Solving for p, Initial residual = 2.04732e-05, Final residual = 9.8576e-07, No Iterations 220
time step continuity errors : sum local = 7.20796e-12, global = 2.02946e-20, cumulative = 1.38098e-20
DICPCG:  Solving for p, Initial residual = 4.65464e-06, Final residual = 9.64563e-07, No Iterations 83
time step continuity errors : sum local = 7.34568e-12, global = 9.3638e-21, cumulative = 2.31736e-20
ExecutionTime = 10.05 s  ClockTime = 10 s

Time = 15.051

Courant Number mean: 0.0411658 max: 0.391687
smoothSolver:  Solving for Ux, Initial residual = 1.68011e-05, Final residual = 8.8734e-08, No Iterations 1
smoothSolver:  Solving for Uy, Initial residual = 1.81062e-05, Final residual = 9.62732e-08, No Iterations 1
DICPCG:  Solving for p, Initial residual = 2.06021e-05, Final residual = 1.00679e-06, No Iterations 104
time step continuity errors : sum local = 8.06115e-12, global = -2.16079e-20, cumulative = 1.56576e-21
DICPCG:  Solving for p, Initial residual = 4.60891e-06, Final residual = 9.75958e-07, No Iterations 87
time step continuity errors : sum local = 7.85945e-12, global = -2.94029e-21, cumulative = -1.37453e-21
ExecutionTime = 10.22 s  ClockTime = 11 s

Time = 15.052

Courant Number mean: 0.0411668 max: 0.391687
smoothSolver:  Solving for Ux, Initial residual = 1.6799e-05, Final residual = 8.87276e-08, No Iterations 1
smoothSolver:  Solving for Uy, Initial residual = 1.81032e-05, Final residual = 9.62616e-08, No Iterations 1
DICPCG:  Solving for p, Initial residual = 2.03995e-05, Final residual = 9.30377e-07, No Iterations 106
time step continuity errors : sum local = 7.53059e-12, global = 1.40036e-20, cumulative = 1.2629e-20
DICPCG:  Solving for p, Initial residual = 4.57462e-06, Final residual = 9.62112e-07, No Iterations 87
time step continuity errors : sum local = 7.78225e-12, global = 3.26155e-21, cumulative = 1.58906e-20
ExecutionTime = 10.4 s  ClockTime = 11 s

Time = 15.053

Courant Number mean: 0.0411678 max: 0.391687
smoothSolver:  Solving for Ux, Initial residual = 1.67965e-05, Final residual = 8.87187e-08, No Iterations 1
smoothSolver:  Solving for Uy, Initial residual = 1.81002e-05, Final residual = 9.62496e-08, No Iterations 1
DICPCG:  Solving for p, Initial residual = 2.01719e-05, Final residual = 1.00832e-06, No Iterations 101
time step continuity errors : sum local = 7.816e-12, global = 1.42534e-20, cumulative = 3.0144e-20
DICPCG:  Solving for p, Initial residual = 4.59483e-06, Final residual = 9.93497e-07, No Iterations 84
time step continuity errors : sum local = 7.77343e-12, global = -7.53045e-21, cumulative = 2.26136e-20
ExecutionTime = 10.57 s  ClockTime = 11 s

Time = 15.054

Courant Number mean: 0.0411687 max: 0.391687
smoothSolver:  Solving for Ux, Initial residual = 1.67939e-05, Final residual = 8.87091e-08, No Iterations 1
smoothSolver:  Solving for Uy, Initial residual = 1.80973e-05, Final residual = 9.62384e-08, No Iterations 1
DICPCG:  Solving for p, Initial residual = 2.03869e-05, Final residual = 9.76078e-07, No Iterations 97
time step continuity errors : sum local = 7.17796e-12, global = -7.41837e-22, cumulative = 2.18717e-20
DICPCG:  Solving for p, Initial residual = 4.64073e-06, Final residual = 9.87424e-07, No Iterations 59
time step continuity errors : sum local = 7.35751e-12, global = 1.78241e-20, cumulative = 3.96958e-20
ExecutionTime = 10.72 s  ClockTime = 11 s

Time = 15.055

Courant Number mean: 0.0411697 max: 0.391687
smoothSolver:  Solving for Ux, Initial residual = 1.6791e-05, Final residual = 8.86982e-08, No Iterations 1
smoothSolver:  Solving for Uy, Initial residual = 1.80944e-05, Final residual = 9.62292e-08, No Iterations 1
DICPCG:  Solving for p, Initial residual = 2.0284e-05, Final residual = 1.01332e-06, No Iterations 96
time step continuity errors : sum local = 7.78235e-12, global = -5.83641e-21, cumulative = 3.38594e-20
DICPCG:  Solving for p, Initial residual = 4.64446e-06, Final residual = 9.79184e-07, No Iterations 60
time step continuity errors : sum local = 7.40235e-12, global = 1.20102e-20, cumulative = 4.58696e-20
ExecutionTime = 10.86 s  ClockTime = 11 s

Time = 15.056

Courant Number mean: 0.0411707 max: 0.391687
smoothSolver:  Solving for Ux, Initial residual = 1.67889e-05, Final residual = 8.86907e-08, No Iterations 1
smoothSolver:  Solving for Uy, Initial residual = 1.80914e-05, Final residual = 9.62163e-08, No Iterations 1
DICPCG:  Solving for p, Initial residual = 2.03177e-05, Final residual = 9.92407e-07, No Iterations 107
time step continuity errors : sum local = 8.00123e-12, global = 1.91737e-20, cumulative = 6.50434e-20
DICPCG:  Solving for p, Initial residual = 4.62038e-06, Final residual = 9.31991e-07, No Iterations 86
time step continuity errors : sum local = 7.37818e-12, global = -5.58321e-21, cumulative = 5.94602e-20
ExecutionTime = 11.04 s  ClockTime = 11 s

Time = 15.057

Courant Number mean: 0.0411717 max: 0.391687
smoothSolver:  Solving for Ux, Initial residual = 1.67866e-05, Final residual = 8.86825e-08, No Iterations 1
smoothSolver:  Solving for Uy, Initial residual = 1.80886e-05, Final residual = 9.62036e-08, No Iterations 1
DICPCG:  Solving for p, Initial residual = 2.04097e-05, Final residual = 1.01996e-06, No Iterations 109
time step continuity errors : sum local = 8.43843e-12, global = 1.12631e-21, cumulative = 6.05865e-20
DICPCG:  Solving for p, Initial residual = 4.66817e-06, Final residual = 9.94469e-07, No Iterations 87
time step continuity errors : sum local = 8.04255e-12, global = 1.9224e-20, cumulative = 7.98105e-20
ExecutionTime = 11.22 s  ClockTime = 12 s

Time = 15.058

Courant Number mean: 0.0411727 max: 0.391687
smoothSolver:  Solving for Ux, Initial residual = 1.67837e-05, Final residual = 8.86714e-08, No Iterations 1
smoothSolver:  Solving for Uy, Initial residual = 1.80855e-05, Final residual = 9.61936e-08, No Iterations 1
DICPCG:  Solving for p, Initial residual = 2.03316e-05, Final residual = 1.01161e-06, No Iterations 220
time step continuity errors : sum local = 7.39856e-12, global = 1.59546e-20, cumulative = 9.57651e-20
DICPCG:  Solving for p, Initial residual = 4.66365e-06, Final residual = 9.78282e-07, No Iterations 82
time step continuity errors : sum local = 7.46192e-12, global = -6.92768e-21, cumulative = 8.88374e-20
ExecutionTime = 11.47 s  ClockTime = 12 s

Time = 15.059

Courant Number mean: 0.0411736 max: 0.391687
smoothSolver:  Solving for Ux, Initial residual = 1.67798e-05, Final residual = 8.86549e-08, No Iterations 1
smoothSolver:  Solving for Uy, Initial residual = 1.80828e-05, Final residual = 9.61843e-08, No Iterations 1
DICPCG:  Solving for p, Initial residual = 2.05883e-05, Final residual = 1.01198e-06, No Iterations 107
time step continuity errors : sum local = 8.30769e-12, global = -8.42656e-22, cumulative = 8.79947e-20
DICPCG:  Solving for p, Initial residual = 4.63441e-06, Final residual = 9.63431e-07, No Iterations 97
time step continuity errors : sum local = 7.93098e-12, global = 9.12396e-21, cumulative = 9.71187e-20
ExecutionTime = 11.65 s  ClockTime = 12 s

Time = 15.06

Courant Number mean: 0.0411746 max: 0.391687
smoothSolver:  Solving for Ux, Initial residual = 1.67782e-05, Final residual = 8.8649e-08, No Iterations 1
smoothSolver:  Solving for Uy, Initial residual = 1.80798e-05, Final residual = 9.61736e-08, No Iterations 1
DICPCG:  Solving for p, Initial residual = 2.04581e-05, Final residual = 9.8425e-07, No Iterations 108
time step continuity errors : sum local = 8.14204e-12, global = 3.00362e-20, cumulative = 1.27155e-19
DICPCG:  Solving for p, Initial residual = 4.63843e-06, Final residual = 9.74859e-07, No Iterations 205
time step continuity errors : sum local = 7.14704e-12, global = 9.37107e-21, cumulative = 1.36526e-19
ExecutionTime = 11.91 s  ClockTime = 12 s

Time = 15.061

Courant Number mean: 0.0411756 max: 0.391687
smoothSolver:  Solving for Ux, Initial residual = 1.67759e-05, Final residual = 8.86424e-08, No Iterations 1
smoothSolver:  Solving for Uy, Initial residual = 1.80769e-05, Final residual = 9.61612e-08, No Iterations 1
DICPCG:  Solving for p, Initial residual = 2.06959e-05, Final residual = 1.00905e-06, No Iterations 220
time step continuity errors : sum local = 7.38218e-12, global = 6.0798e-21, cumulative = 1.42606e-19
DICPCG:  Solving for p, Initial residual = 4.69796e-06, Final residual = 9.66687e-07, No Iterations 83
time step continuity errors : sum local = 7.40266e-12, global = 5.49546e-21, cumulative = 1.48101e-19
ExecutionTime = 12.17 s  ClockTime = 13 s

Time = 15.062

Courant Number mean: 0.0411766 max: 0.391687
smoothSolver:  Solving for Ux, Initial residual = 1.67728e-05, Final residual = 8.86313e-08, No Iterations 1
smoothSolver:  Solving for Uy, Initial residual = 1.80738e-05, Final residual = 9.6148e-08, No Iterations 1
DICPCG:  Solving for p, Initial residual = 2.11992e-05, Final residual = 1.03076e-06, No Iterations 97
time step continuity errors : sum local = 7.91912e-12, global = 1.97985e-21, cumulative = 1.50081e-19
DICPCG:  Solving for p, Initial residual = 4.73338e-06, Final residual = 9.91121e-07, No Iterations 84
time step continuity errors : sum local = 7.69402e-12, global = -6.22644e-21, cumulative = 1.43855e-19
ExecutionTime = 12.33 s  ClockTime = 13 s

Time = 15.063

Courant Number mean: 0.0411776 max: 0.391687
smoothSolver:  Solving for Ux, Initial residual = 1.67703e-05, Final residual = 8.86206e-08, No Iterations 1
smoothSolver:  Solving for Uy, Initial residual = 1.8071e-05, Final residual = 9.61391e-08, No Iterations 1
DICPCG:  Solving for p, Initial residual = 2.30459e-05, Final residual = 1.14542e-06, No Iterations 96
time step continuity errors : sum local = 8.62e-12, global = 6.80743e-21, cumulative = 1.50662e-19
DICPCG:  Solving for p, Initial residual = 4.80895e-06, Final residual = 9.97012e-07, No Iterations 59
time step continuity errors : sum local = 7.6104e-12, global = 6.5184e-21, cumulative = 1.5718e-19
ExecutionTime = 12.48 s  ClockTime = 13 s

Time = 15.064

Courant Number mean: 0.0411785 max: 0.391687
smoothSolver:  Solving for Ux, Initial residual = 1.67674e-05, Final residual = 8.86101e-08, No Iterations 1
smoothSolver:  Solving for Uy, Initial residual = 1.80678e-05, Final residual = 9.6129e-08, No Iterations 1
DICPCG:  Solving for p, Initial residual = 2.40433e-05, Final residual = 1.18012e-06, No Iterations 90
time step continuity errors : sum local = 8.63845e-12, global = -7.79337e-21, cumulative = 1.49387e-19
DICPCG:  Solving for p, Initial residual = 4.8152e-06, Final residual = 9.82652e-07, No Iterations 61
time step continuity errors : sum local = 7.26915e-12, global = 1.31009e-21, cumulative = 1.50697e-19
ExecutionTime = 12.63 s  ClockTime = 13 s

Time = 15.065

Courant Number mean: 0.0411795 max: 0.391687
smoothSolver:  Solving for Ux, Initial residual = 1.67653e-05, Final residual = 8.86035e-08, No Iterations 1
smoothSolver:  Solving for Uy, Initial residual = 1.8065e-05, Final residual = 9.61155e-08, No Iterations 1
DICPCG:  Solving for p, Initial residual = 2.04586e-05, Final residual = 9.98446e-07, No Iterations 97
time step continuity errors : sum local = 7.63718e-12, global = 2.73112e-20, cumulative = 1.78008e-19
DICPCG:  Solving for p, Initial residual = 4.63209e-06, Final residual = 9.65871e-07, No Iterations 60
time step continuity errors : sum local = 7.27535e-12, global = -2.12016e-20, cumulative = 1.56807e-19
ExecutionTime = 12.78 s  ClockTime = 13 s

Time = 15.066

Courant Number mean: 0.0411805 max: 0.391687
smoothSolver:  Solving for Ux, Initial residual = 1.67625e-05, Final residual = 8.85924e-08, No Iterations 1
smoothSolver:  Solving for Uy, Initial residual = 1.80623e-05, Final residual = 9.61059e-08, No Iterations 1
DICPCG:  Solving for p, Initial residual = 2.03805e-05, Final residual = 1.00903e-06, No Iterations 105
time step continuity errors : sum local = 8.03183e-12, global = -1.23386e-20, cumulative = 1.44468e-19
DICPCG:  Solving for p, Initial residual = 4.60075e-06, Final residual = 9.69807e-07, No Iterations 84
time step continuity errors : sum local = 7.57959e-12, global = 5.26869e-21, cumulative = 1.49737e-19
ExecutionTime = 12.95 s  ClockTime = 13 s

Time = 15.067

Courant Number mean: 0.0411815 max: 0.391687
smoothSolver:  Solving for Ux, Initial residual = 1.67604e-05, Final residual = 8.85852e-08, No Iterations 1
smoothSolver:  Solving for Uy, Initial residual = 1.80593e-05, Final residual = 9.6092e-08, No Iterations 1
DICPCG:  Solving for p, Initial residual = 2.04257e-05, Final residual = 9.6486e-07, No Iterations 108
time step continuity errors : sum local = 7.92596e-12, global = 2.2019e-20, cumulative = 1.71756e-19
DICPCG:  Solving for p, Initial residual = 4.62891e-06, Final residual = 9.15627e-07, No Iterations 87
time step continuity errors : sum local = 7.38153e-12, global = -1.21064e-20, cumulative = 1.59649e-19
ExecutionTime = 13.12 s  ClockTime = 14 s

Time = 15.068

Courant Number mean: 0.0411824 max: 0.391687
smoothSolver:  Solving for Ux, Initial residual = 1.67575e-05, Final residual = 8.85742e-08, No Iterations 1
smoothSolver:  Solving for Uy, Initial residual = 1.80563e-05, Final residual = 9.60825e-08, No Iterations 1
DICPCG:  Solving for p, Initial residual = 2.02188e-05, Final residual = 9.87271e-07, No Iterations 220
time step continuity errors : sum local = 7.22254e-12, global = -3.87284e-21, cumulative = 1.55777e-19
DICPCG:  Solving for p, Initial residual = 4.64947e-06, Final residual = 9.9086e-07, No Iterations 82
time step continuity errors : sum local = 7.53784e-12, global = 1.89419e-20, cumulative = 1.74718e-19
ExecutionTime = 13.38 s  ClockTime = 14 s

Time = 15.069

Courant Number mean: 0.0411834 max: 0.391687
smoothSolver:  Solving for Ux, Initial residual = 1.67538e-05, Final residual = 8.85583e-08, No Iterations 1
smoothSolver:  Solving for Uy, Initial residual = 1.80536e-05, Final residual = 9.60727e-08, No Iterations 1
DICPCG:  Solving for p, Initial residual = 2.06173e-05, Final residual = 9.82286e-07, No Iterations 106
time step continuity errors : sum local = 8.0032e-12, global = -1.67584e-20, cumulative = 1.5796e-19
DICPCG:  Solving for p, Initial residual = 4.65833e-06, Final residual = 9.89402e-07, No Iterations 89
time step continuity errors : sum local = 8.05041e-12, global = 2.45002e-20, cumulative = 1.8246e-19
ExecutionTime = 13.55 s  ClockTime = 14 s

Time = 15.07

Courant Number mean: 0.0411844 max: 0.391687
smoothSolver:  Solving for Ux, Initial residual = 1.6752e-05, Final residual = 8.85529e-08, No Iterations 1
smoothSolver:  Solving for Uy, Initial residual = 1.80505e-05, Final residual = 9.60616e-08, No Iterations 1
DICPCG:  Solving for p, Initial residual = 2.03855e-05, Final residual = 9.80919e-07, No Iterations 106
time step continuity errors : sum local = 8.04282e-12, global = 6.46555e-21, cumulative = 1.88926e-19
DICPCG:  Solving for p, Initial residual = 4.6293e-06, Final residual = 9.80505e-07, No Iterations 94
time step continuity errors : sum local = 8.03556e-12, global = 4.98765e-22, cumulative = 1.89425e-19
ExecutionTime = 13.73 s  ClockTime = 14 s

Time = 15.071

Courant Number mean: 0.0411854 max: 0.391687
smoothSolver:  Solving for Ux, Initial residual = 1.67495e-05, Final residual = 8.85432e-08, No Iterations 1
smoothSolver:  Solving for Uy, Initial residual = 1.80475e-05, Final residual = 9.605e-08, No Iterations 1
DICPCG:  Solving for p, Initial residual = 2.06874e-05, Final residual = 1.02448e-06, No Iterations 98
time step continuity errors : sum local = 8.05679e-12, global = 9.46066e-21, cumulative = 1.98885e-19
DICPCG:  Solving for p, Initial residual = 4.70396e-06, Final residual = 9.49639e-07, No Iterations 86
time step continuity errors : sum local = 7.54791e-12, global = 1.4944e-20, cumulative = 2.13829e-19
ExecutionTime = 13.9 s  ClockTime = 14 s

Time = 15.072

Courant Number mean: 0.0411864 max: 0.391687
smoothSolver:  Solving for Ux, Initial residual = 1.67468e-05, Final residual = 8.85347e-08, No Iterations 1
smoothSolver:  Solving for Uy, Initial residual = 1.80447e-05, Final residual = 9.60377e-08, No Iterations 1
DICPCG:  Solving for p, Initial residual = 2.03211e-05, Final residual = 9.98198e-07, No Iterations 97
time step continuity errors : sum local = 7.42353e-12, global = -9.25812e-21, cumulative = 2.04571e-19
DICPCG:  Solving for p, Initial residual = 4.61278e-06, Final residual = 9.45692e-07, No Iterations 60
time step continuity errors : sum local = 7.12143e-12, global = 1.0628e-20, cumulative = 2.15199e-19
ExecutionTime = 14.05 s  ClockTime = 14 s

Time = 15.073

Courant Number mean: 0.0411873 max: 0.391687
smoothSolver:  Solving for Ux, Initial residual = 1.67439e-05, Final residual = 8.85234e-08, No Iterations 1
smoothSolver:  Solving for Uy, Initial residual = 1.80417e-05, Final residual = 9.60286e-08, No Iterations 1
DICPCG:  Solving for p, Initial residual = 2.0242e-05, Final residual = 1.01065e-06, No Iterations 95
time step continuity errors : sum local = 7.70526e-12, global = 1.11468e-20, cumulative = 2.26346e-19
DICPCG:  Solving for p, Initial residual = 4.62917e-06, Final residual = 9.76498e-07, No Iterations 60
time step continuity errors : sum local = 7.32743e-12, global = -9.21701e-21, cumulative = 2.17129e-19
ExecutionTime = 14.2 s  ClockTime = 15 s

Time = 15.074

Courant Number mean: 0.0411883 max: 0.391687
smoothSolver:  Solving for Ux, Initial residual = 1.67418e-05, Final residual = 8.8516e-08, No Iterations 1
smoothSolver:  Solving for Uy, Initial residual = 1.80388e-05, Final residual = 9.60159e-08, No Iterations 1
DICPCG:  Solving for p, Initial residual = 2.01364e-05, Final residual = 9.35494e-07, No Iterations 107
time step continuity errors : sum local = 7.55833e-12, global = 7.13794e-21, cumulative = 2.24267e-19
DICPCG:  Solving for p, Initial residual = 4.57994e-06, Final residual = 9.92065e-07, No Iterations 84
time step continuity errors : sum local = 7.79046e-12, global = 1.84767e-20, cumulative = 2.42744e-19
ExecutionTime = 14.37 s  ClockTime = 15 s

Time = 15.075

Courant Number mean: 0.0411893 max: 0.391687
smoothSolver:  Solving for Ux, Initial residual = 1.67395e-05, Final residual = 8.85076e-08, No Iterations 1
smoothSolver:  Solving for Uy, Initial residual = 1.80359e-05, Final residual = 9.6003e-08, No Iterations 1
DICPCG:  Solving for p, Initial residual = 2.03802e-05, Final residual = 9.8104e-07, No Iterations 220
time step continuity errors : sum local = 7.17503e-12, global = -5.57141e-21, cumulative = 2.37172e-19
DICPCG:  Solving for p, Initial residual = 4.64779e-06, Final residual = 9.97995e-07, No Iterations 82
time step continuity errors : sum local = 7.59416e-12, global = 4.3364e-21, cumulative = 2.41509e-19
ExecutionTime = 14.71 s  ClockTime = 15 s

Time = 15.076

Courant Number mean: 0.0411903 max: 0.391687
smoothSolver:  Solving for Ux, Initial residual = 1.67357e-05, Final residual = 8.84912e-08, No Iterations 1
smoothSolver:  Solving for Uy, Initial residual = 1.80331e-05, Final residual = 9.59948e-08, No Iterations 1
DICPCG:  Solving for p, Initial residual = 2.03978e-05, Final residual = 9.84929e-07, No Iterations 104
time step continuity errors : sum local = 7.90353e-12, global = 6.60405e-21, cumulative = 2.48113e-19
DICPCG:  Solving for p, Initial residual = 4.59779e-06, Final residual = 9.59256e-07, No Iterations 87
time step continuity errors : sum local = 7.74688e-12, global = -1.24638e-22, cumulative = 2.47988e-19
ExecutionTime = 14.88 s  ClockTime = 15 s

Time = 15.077

Courant Number mean: 0.0411912 max: 0.391687
smoothSolver:  Solving for Ux, Initial residual = 1.67337e-05, Final residual = 8.84849e-08, No Iterations 1
smoothSolver:  Solving for Uy, Initial residual = 1.80301e-05, Final residual = 9.59835e-08, No Iterations 1
DICPCG:  Solving for p, Initial residual = 2.02543e-05, Final residual = 1.0021e-06, No Iterations 105
time step continuity errors : sum local = 8.04944e-12, global = -2.75775e-20, cumulative = 2.20411e-19
DICPCG:  Solving for p, Initial residual = 4.58326e-06, Final residual = 9.54205e-07, No Iterations 87
time step continuity errors : sum local = 7.72982e-12, global = -6.35608e-21, cumulative = 2.14055e-19
ExecutionTime = 15.06 s  ClockTime = 15 s

Time = 15.078

Courant Number mean: 0.0411922 max: 0.391687
smoothSolver:  Solving for Ux, Initial residual = 1.67312e-05, Final residual = 8.8476e-08, No Iterations 1
smoothSolver:  Solving for Uy, Initial residual = 1.80271e-05, Final residual = 9.59713e-08, No Iterations 1
DICPCG:  Solving for p, Initial residual = 2.00216e-05, Final residual = 9.78007e-07, No Iterations 103
time step continuity errors : sum local = 7.59694e-12, global = 3.04084e-20, cumulative = 2.44463e-19
DICPCG:  Solving for p, Initial residual = 4.5594e-06, Final residual = 9.99015e-07, No Iterations 84
time step continuity errors : sum local = 7.81271e-12, global = 7.04786e-21, cumulative = 2.51511e-19
ExecutionTime = 15.23 s  ClockTime = 16 s

Time = 15.079

Courant Number mean: 0.0411932 max: 0.391687
smoothSolver:  Solving for Ux, Initial residual = 1.67286e-05, Final residual = 8.84664e-08, No Iterations 1
smoothSolver:  Solving for Uy, Initial residual = 1.80242e-05, Final residual = 9.596e-08, No Iterations 1
DICPCG:  Solving for p, Initial residual = 2.02896e-05, Final residual = 9.61306e-07, No Iterations 97
time step continuity errors : sum local = 7.06713e-12, global = 4.5829e-21, cumulative = 2.56094e-19
DICPCG:  Solving for p, Initial residual = 4.60737e-06, Final residual = 9.97128e-07, No Iterations 57
time step continuity errors : sum local = 7.42623e-12, global = 5.54749e-22, cumulative = 2.56648e-19
ExecutionTime = 15.37 s  ClockTime = 16 s

Time = 15.08

Courant Number mean: 0.0411942 max: 0.391687
smoothSolver:  Solving for Ux, Initial residual = 1.67257e-05, Final residual = 8.84553e-08, No Iterations 1
smoothSolver:  Solving for Uy, Initial residual = 1.80212e-05, Final residual = 9.59508e-08, No Iterations 1
DICPCG:  Solving for p, Initial residual = 2.0184e-05, Final residual = 1.00898e-06, No Iterations 96
time step continuity errors : sum local = 7.75927e-12, global = -1.68298e-21, cumulative = 2.54965e-19
DICPCG:  Solving for p, Initial residual = 4.6248e-06, Final residual = 9.84342e-07, No Iterations 60
time step continuity errors : sum local = 7.44626e-12, global = 5.4287e-21, cumulative = 2.60394e-19
ExecutionTime = 15.52 s  ClockTime = 16 s

Time = 15.081

Courant Number mean: 0.0411952 max: 0.391687
smoothSolver:  Solving for Ux, Initial residual = 1.67235e-05, Final residual = 8.84481e-08, No Iterations 1
smoothSolver:  Solving for Uy, Initial residual = 1.80183e-05, Final residual = 9.5938e-08, No Iterations 1
DICPCG:  Solving for p, Initial residual = 2.0432e-05, Final residual = 1.02143e-06, No Iterations 106
time step continuity errors : sum local = 8.22796e-12, global = 7.67256e-21, cumulative = 2.68067e-19
DICPCG:  Solving for p, Initial residual = 4.62421e-06, Final residual = 9.9899e-07, No Iterations 85
time step continuity errors : sum local = 7.86953e-12, global = 2.87426e-20, cumulative = 2.96809e-19
ExecutionTime = 15.7 s  ClockTime = 16 s

Time = 15.082

Courant Number mean: 0.0411961 max: 0.391688
smoothSolver:  Solving for Ux, Initial residual = 1.67213e-05, Final residual = 8.84397e-08, No Iterations 1
smoothSolver:  Solving for Uy, Initial residual = 1.80155e-05, Final residual = 9.59252e-08, No Iterations 1
DICPCG:  Solving for p, Initial residual = 2.06036e-05, Final residual = 9.878e-07, No Iterations 108
time step continuity errors : sum local = 8.20903e-12, global = 1.38064e-20, cumulative = 3.10616e-19
DICPCG:  Solving for p, Initial residual = 4.63823e-06, Final residual = 9.72455e-07, No Iterations 87
time step continuity errors : sum local = 7.89331e-12, global = -1.84139e-21, cumulative = 3.08774e-19
ExecutionTime = 15.88 s  ClockTime = 16 s

Time = 15.083

Courant Number mean: 0.0411971 max: 0.391688
smoothSolver:  Solving for Ux, Initial residual = 1.67184e-05, Final residual = 8.84287e-08, No Iterations 1
smoothSolver:  Solving for Uy, Initial residual = 1.80124e-05, Final residual = 9.59154e-08, No Iterations 1
DICPCG:  Solving for p, Initial residual = 2.03897e-05, Final residual = 9.75521e-07, No Iterations 220
time step continuity errors : sum local = 7.13656e-12, global = 2.78051e-21, cumulative = 3.11555e-19
DICPCG:  Solving for p, Initial residual = 4.63914e-06, Final residual = 9.69021e-07, No Iterations 82
time step continuity errors : sum local = 7.39784e-12, global = -1.40385e-20, cumulative = 2.97516e-19
ExecutionTime = 16.13 s  ClockTime = 17 s

Time = 15.084

Courant Number mean: 0.0411981 max: 0.391688
smoothSolver:  Solving for Ux, Initial residual = 1.67145e-05, Final residual = 8.84121e-08, No Iterations 1
smoothSolver:  Solving for Uy, Initial residual = 1.80098e-05, Final residual = 9.5906e-08, No Iterations 1
DICPCG:  Solving for p, Initial residual = 2.04231e-05, Final residual = 9.87237e-07, No Iterations 107
time step continuity errors : sum local = 8.13759e-12, global = 6.38595e-21, cumulative = 3.03902e-19
DICPCG:  Solving for p, Initial residual = 4.59735e-06, Final residual = 9.70417e-07, No Iterations 97
time step continuity errors : sum local = 7.99403e-12, global = 8.45293e-21, cumulative = 3.12355e-19
ExecutionTime = 16.31 s  ClockTime = 17 s

Time = 15.085

Courant Number mean: 0.0411991 max: 0.391688
smoothSolver:  Solving for Ux, Initial residual = 1.67128e-05, Final residual = 8.84063e-08, No Iterations 1
smoothSolver:  Solving for Uy, Initial residual = 1.80067e-05, Final residual = 9.58953e-08, No Iterations 1
DICPCG:  Solving for p, Initial residual = 2.02542e-05, Final residual = 1.01098e-06, No Iterations 107
time step continuity errors : sum local = 8.36403e-12, global = -2.1089e-20, cumulative = 2.91266e-19
DICPCG:  Solving for p, Initial residual = 4.58039e-06, Final residual = 9.99864e-07, No Iterations 205
time step continuity errors : sum local = 7.33352e-12, global = -7.55967e-21, cumulative = 2.83707e-19
ExecutionTime = 16.57 s  ClockTime = 17 s

Time = 15.086

Courant Number mean: 0.0412 max: 0.391688
smoothSolver:  Solving for Ux, Initial residual = 1.67106e-05, Final residual = 8.83997e-08, No Iterations 1
smoothSolver:  Solving for Uy, Initial residual = 1.80039e-05, Final residual = 9.58829e-08, No Iterations 1
DICPCG:  Solving for p, Initial residual = 2.04259e-05, Final residual = 9.94343e-07, No Iterations 219
time step continuity errors : sum local = 7.28274e-12, global = -1.39308e-20, cumulative = 2.69776e-19
DICPCG:  Solving for p, Initial residual = 4.64756e-06, Final residual = 9.55869e-07, No Iterations 83
time step continuity errors : sum local = 7.3266e-12, global = 5.54379e-22, cumulative = 2.7033e-19
ExecutionTime = 16.83 s  ClockTime = 17 s

Time = 15.087

Courant Number mean: 0.041201 max: 0.391688
smoothSolver:  Solving for Ux, Initial residual = 1.67075e-05, Final residual = 8.83886e-08, No Iterations 1
smoothSolver:  Solving for Uy, Initial residual = 1.80007e-05, Final residual = 9.58697e-08, No Iterations 1
DICPCG:  Solving for p, Initial residual = 2.03378e-05, Final residual = 9.72133e-07, No Iterations 97
time step continuity errors : sum local = 7.4895e-12, global = 5.96166e-21, cumulative = 2.76292e-19
DICPCG:  Solving for p, Initial residual = 4.59901e-06, Final residual = 9.92028e-07, No Iterations 61
time step continuity errors : sum local = 7.70975e-12, global = -1.22206e-20, cumulative = 2.64071e-19
ExecutionTime = 16.98 s  ClockTime = 17 s

Time = 15.088

Courant Number mean: 0.041202 max: 0.391688
smoothSolver:  Solving for Ux, Initial residual = 1.67045e-05, Final residual = 8.83763e-08, No Iterations 1
smoothSolver:  Solving for Uy, Initial residual = 1.79979e-05, Final residual = 9.58623e-08, No Iterations 1
DICPCG:  Solving for p, Initial residual = 2.01887e-05, Final residual = 1.00605e-06, No Iterations 94
time step continuity errors : sum local = 7.63193e-12, global = 1.27151e-20, cumulative = 2.76786e-19
DICPCG:  Solving for p, Initial residual = 4.58468e-06, Final residual = 9.76808e-07, No Iterations 60
time step continuity errors : sum local = 7.49471e-12, global = 6.62045e-21, cumulative = 2.83407e-19
ExecutionTime = 17.12 s  ClockTime = 18 s

Time = 15.089

Courant Number mean: 0.041203 max: 0.391688
smoothSolver:  Solving for Ux, Initial residual = 1.67024e-05, Final residual = 8.83691e-08, No Iterations 1
smoothSolver:  Solving for Uy, Initial residual = 1.7995e-05, Final residual = 9.58492e-08, No Iterations 1
DICPCG:  Solving for p, Initial residual = 2.01207e-05, Final residual = 1.00518e-06, No Iterations 96
time step continuity errors : sum local = 7.37051e-12, global = 1.14975e-22, cumulative = 2.83522e-19
DICPCG:  Solving for p, Initial residual = 4.59635e-06, Final residual = 9.97314e-07, No Iterations 59
time step continuity errors : sum local = 7.41822e-12, global = -1.06678e-20, cumulative = 2.72854e-19
ExecutionTime = 17.27 s  ClockTime = 18 s

Time = 15.09

Courant Number mean: 0.0412039 max: 0.391688
smoothSolver:  Solving for Ux, Initial residual = 1.66998e-05, Final residual = 8.83593e-08, No Iterations 1
smoothSolver:  Solving for Uy, Initial residual = 1.79922e-05, Final residual = 9.58385e-08, No Iterations 1
DICPCG:  Solving for p, Initial residual = 2.01473e-05, Final residual = 9.65208e-07, No Iterations 97
time step continuity errors : sum local = 7.35081e-12, global = 1.19219e-21, cumulative = 2.74046e-19
DICPCG:  Solving for p, Initial residual = 4.58327e-06, Final residual = 9.83376e-07, No Iterations 59
time step continuity errors : sum local = 7.36104e-12, global = 6.12774e-21, cumulative = 2.80174e-19
ExecutionTime = 17.42 s  ClockTime = 18 s

Time = 15.091

Courant Number mean: 0.0412049 max: 0.391688
smoothSolver:  Solving for Ux, Initial residual = 1.66973e-05, Final residual = 8.83502e-08, No Iterations 1
smoothSolver:  Solving for Uy, Initial residual = 1.79892e-05, Final residual = 9.5827e-08, No Iterations 1
DICPCG:  Solving for p, Initial residual = 2.00234e-05, Final residual = 9.3229e-07, No Iterations 106
time step continuity errors : sum local = 7.44018e-12, global = 3.25674e-21, cumulative = 2.83431e-19
DICPCG:  Solving for p, Initial residual = 4.56269e-06, Final residual = 9.49694e-07, No Iterations 84
time step continuity errors : sum local = 7.39703e-12, global = 1.55286e-20, cumulative = 2.98959e-19
ExecutionTime = 17.59 s  ClockTime = 18 s

Time = 15.092

Courant Number mean: 0.0412059 max: 0.391688
smoothSolver:  Solving for Ux, Initial residual = 1.66951e-05, Final residual = 8.83424e-08, No Iterations 1
smoothSolver:  Solving for Uy, Initial residual = 1.79863e-05, Final residual = 9.58138e-08, No Iterations 1
DICPCG:  Solving for p, Initial residual = 2.03228e-05, Final residual = 1.01007e-06, No Iterations 107
time step continuity errors : sum local = 8.2479e-12, global = 2.76656e-21, cumulative = 3.01726e-19
DICPCG:  Solving for p, Initial residual = 4.62005e-06, Final residual = 9.96929e-07, No Iterations 86
time step continuity errors : sum local = 7.95904e-12, global = 1.2213e-20, cumulative = 3.13939e-19
ExecutionTime = 17.77 s  ClockTime = 18 s

Time = 15.093

Courant Number mean: 0.0412069 max: 0.391688
smoothSolver:  Solving for Ux, Initial residual = 1.66923e-05, Final residual = 8.83315e-08, No Iterations 1
smoothSolver:  Solving for Uy, Initial residual = 1.79833e-05, Final residual = 9.5804e-08, No Iterations 1
DICPCG:  Solving for p, Initial residual = 2.0293e-05, Final residual = 9.42745e-07, No Iterations 220
time step continuity errors : sum local = 6.89818e-12, global = 6.37815e-21, cumulative = 3.20317e-19
DICPCG:  Solving for p, Initial residual = 4.62259e-06, Final residual = 9.70347e-07, No Iterations 82
time step continuity errors : sum local = 7.39171e-12, global = -1.00562e-20, cumulative = 3.10261e-19
ExecutionTime = 18.02 s  ClockTime = 18 s

Time = 15.094

Courant Number mean: 0.0412078 max: 0.391688
smoothSolver:  Solving for Ux, Initial residual = 1.66885e-05, Final residual = 8.83157e-08, No Iterations 1
smoothSolver:  Solving for Uy, Initial residual = 1.79806e-05, Final residual = 9.57945e-08, No Iterations 1
DICPCG:  Solving for p, Initial residual = 2.03608e-05, Final residual = 9.56171e-07, No Iterations 106
time step continuity errors : sum local = 7.80298e-12, global = -2.36952e-20, cumulative = 2.86566e-19
DICPCG:  Solving for p, Initial residual = 4.58456e-06, Final residual = 9.64224e-07, No Iterations 89
time step continuity errors : sum local = 7.8555e-12, global = -3.02823e-21, cumulative = 2.83537e-19
ExecutionTime = 18.19 s  ClockTime = 19 s

Time = 15.095

Courant Number mean: 0.0412088 max: 0.391688
smoothSolver:  Solving for Ux, Initial residual = 1.66867e-05, Final residual = 8.83101e-08, No Iterations 1
smoothSolver:  Solving for Uy, Initial residual = 1.79775e-05, Final residual = 9.57834e-08, No Iterations 1
DICPCG:  Solving for p, Initial residual = 2.01795e-05, Final residual = 9.90667e-07, No Iterations 106
time step continuity errors : sum local = 8.09828e-12, global = -1.1608e-20, cumulative = 2.71929e-19
DICPCG:  Solving for p, Initial residual = 4.56708e-06, Final residual = 9.92783e-07, No Iterations 90
time step continuity errors : sum local = 8.1066e-12, global = -2.32475e-21, cumulative = 2.69605e-19
ExecutionTime = 18.37 s  ClockTime = 19 s

Time = 15.096

Courant Number mean: 0.0412098 max: 0.391688
smoothSolver:  Solving for Ux, Initial residual = 1.66842e-05, Final residual = 8.83011e-08, No Iterations 1
smoothSolver:  Solving for Uy, Initial residual = 1.79746e-05, Final residual = 9.57713e-08, No Iterations 1
DICPCG:  Solving for p, Initial residual = 2.01069e-05, Final residual = 9.81647e-07, No Iterations 104
time step continuity errors : sum local = 7.73045e-12, global = -2.31216e-21, cumulative = 2.67292e-19
DICPCG:  Solving for p, Initial residual = 4.55519e-06, Final residual = 9.34299e-07, No Iterations 86
time step continuity errors : sum local = 7.42395e-12, global = 1.26562e-20, cumulative = 2.79949e-19
ExecutionTime = 18.55 s  ClockTime = 19 s

Time = 15.097

Courant Number mean: 0.0412108 max: 0.391688
smoothSolver:  Solving for Ux, Initial residual = 1.66816e-05, Final residual = 8.82919e-08, No Iterations 1
smoothSolver:  Solving for Uy, Initial residual = 1.79717e-05, Final residual = 9.57594e-08, No Iterations 1
DICPCG:  Solving for p, Initial residual = 2.02072e-05, Final residual = 9.77205e-07, No Iterations 97
time step continuity errors : sum local = 7.26309e-12, global = 3.44581e-21, cumulative = 2.83394e-19
DICPCG:  Solving for p, Initial residual = 4.60076e-06, Final residual = 9.49255e-07, No Iterations 60
time step continuity errors : sum local = 7.14116e-12, global = 2.18252e-20, cumulative = 3.0522e-19
ExecutionTime = 18.69 s  ClockTime = 19 s

Time = 15.098

Courant Number mean: 0.0412117 max: 0.391688
smoothSolver:  Solving for Ux, Initial residual = 1.66787e-05, Final residual = 8.82807e-08, No Iterations 1
smoothSolver:  Solving for Uy, Initial residual = 1.79687e-05, Final residual = 9.57503e-08, No Iterations 1
DICPCG:  Solving for p, Initial residual = 2.0179e-05, Final residual = 9.79452e-07, No Iterations 96
time step continuity errors : sum local = 7.48853e-12, global = 4.28571e-21, cumulative = 3.09505e-19
DICPCG:  Solving for p, Initial residual = 4.6055e-06, Final residual = 9.82749e-07, No Iterations 60
time step continuity errors : sum local = 7.38156e-12, global = -1.15411e-20, cumulative = 2.97964e-19
ExecutionTime = 18.84 s  ClockTime = 19 s

Time = 15.099

Courant Number mean: 0.0412127 max: 0.391688
smoothSolver:  Solving for Ux, Initial residual = 1.66766e-05, Final residual = 8.82732e-08, No Iterations 1
smoothSolver:  Solving for Uy, Initial residual = 1.79658e-05, Final residual = 9.57375e-08, No Iterations 1
DICPCG:  Solving for p, Initial residual = 2.0058e-05, Final residual = 9.66165e-07, No Iterations 107
time step continuity errors : sum local = 7.78962e-12, global = 9.27834e-21, cumulative = 3.07243e-19
DICPCG:  Solving for p, Initial residual = 4.57047e-06, Final residual = 9.97042e-07, No Iterations 85
time step continuity errors : sum local = 7.82511e-12, global = 2.18848e-20, cumulative = 3.29127e-19
ExecutionTime = 19.02 s  ClockTime = 19 s

Time = 15.1

Courant Number mean: 0.0412137 max: 0.391688
smoothSolver:  Solving for Ux, Initial residual = 1.66743e-05, Final residual = 8.8265e-08, No Iterations 1
smoothSolver:  Solving for Uy, Initial residual = 1.7963e-05, Final residual = 9.57248e-08, No Iterations 1
DICPCG:  Solving for p, Initial residual = 2.04127e-05, Final residual = 9.64055e-07, No Iterations 220
time step continuity errors : sum local = 7.05033e-12, global = -6.33108e-21, cumulative = 3.22796e-19
DICPCG:  Solving for p, Initial residual = 4.6354e-06, Final residual = 9.80078e-07, No Iterations 83
time step continuity errors : sum local = 7.46488e-12, global = -1.05578e-21, cumulative = 3.2174e-19
ExecutionTime = 19.36 s  ClockTime = 20 s

Time = 15.101

Courant Number mean: 0.0412147 max: 0.391688
smoothSolver:  Solving for Ux, Initial residual = 1.66705e-05, Final residual = 8.82485e-08, No Iterations 1
smoothSolver:  Solving for Uy, Initial residual = 1.79601e-05, Final residual = 9.57166e-08, No Iterations 1
DICPCG:  Solving for p, Initial residual = 2.04541e-05, Final residual = 9.92777e-07, No Iterations 105
time step continuity errors : sum local = 7.9718e-12, global = 4.22667e-21, cumulative = 3.25967e-19
DICPCG:  Solving for p, Initial residual = 4.58887e-06, Final residual = 9.69805e-07, No Iterations 87
time step continuity errors : sum local = 7.82614e-12, global = 8.95821e-21, cumulative = 3.34925e-19
ExecutionTime = 19.54 s  ClockTime = 20 s

Time = 15.102

Courant Number mean: 0.0412156 max: 0.391688
smoothSolver:  Solving for Ux, Initial residual = 1.66684e-05, Final residual = 8.82421e-08, No Iterations 1
smoothSolver:  Solving for Uy, Initial residual = 1.79572e-05, Final residual = 9.57049e-08, No Iterations 1
DICPCG:  Solving for p, Initial residual = 2.04726e-05, Final residual = 1.00459e-06, No Iterations 104
time step continuity errors : sum local = 8.07283e-12, global = 8.31817e-21, cumulative = 3.43243e-19
DICPCG:  Solving for p, Initial residual = 4.6033e-06, Final residual = 9.75993e-07, No Iterations 87
time step continuity errors : sum local = 7.88776e-12, global = 3.25438e-20, cumulative = 3.75787e-19
ExecutionTime = 19.71 s  ClockTime = 20 s

Time = 15.103

Courant Number mean: 0.0412166 max: 0.391688
smoothSolver:  Solving for Ux, Initial residual = 1.6666e-05, Final residual = 8.82334e-08, No Iterations 1
smoothSolver:  Solving for Uy, Initial residual = 1.79542e-05, Final residual = 9.56931e-08, No Iterations 1
DICPCG:  Solving for p, Initial residual = 2.00077e-05, Final residual = 9.98557e-07, No Iterations 103
time step continuity errors : sum local = 7.74875e-12, global = -1.28924e-20, cumulative = 3.62895e-19
DICPCG:  Solving for p, Initial residual = 4.56723e-06, Final residual = 9.74944e-07, No Iterations 85
time step continuity errors : sum local = 7.63565e-12, global = -9.44747e-21, cumulative = 3.53447e-19
ExecutionTime = 19.88 s  ClockTime = 20 s

Time = 15.104

Courant Number mean: 0.0412176 max: 0.391688
smoothSolver:  Solving for Ux, Initial residual = 1.66634e-05, Final residual = 8.82238e-08, No Iterations 1
smoothSolver:  Solving for Uy, Initial residual = 1.79513e-05, Final residual = 9.56818e-08, No Iterations 1
DICPCG:  Solving for p, Initial residual = 2.05065e-05, Final residual = 9.56563e-07, No Iterations 96
time step continuity errors : sum local = 7.02626e-12, global = -2.15051e-21, cumulative = 3.51297e-19
DICPCG:  Solving for p, Initial residual = 4.62098e-06, Final residual = 9.8781e-07, No Iterations 58
time step continuity errors : sum local = 7.35742e-12, global = 1.06083e-21, cumulative = 3.52358e-19
ExecutionTime = 20.03 s  ClockTime = 20 s

Time = 15.105

Courant Number mean: 0.0412186 max: 0.391688
smoothSolver:  Solving for Ux, Initial residual = 1.66605e-05, Final residual = 8.82126e-08, No Iterations 1
smoothSolver:  Solving for Uy, Initial residual = 1.79484e-05, Final residual = 9.56725e-08, No Iterations 1
DICPCG:  Solving for p, Initial residual = 2.0399e-05, Final residual = 1.01772e-06, No Iterations 93
time step continuity errors : sum local = 7.82621e-12, global = 1.3058e-21, cumulative = 3.53664e-19
DICPCG:  Solving for p, Initial residual = 4.62566e-06, Final residual = 9.8013e-07, No Iterations 60
time step continuity errors : sum local = 7.41973e-12, global = -2.58266e-20, cumulative = 3.27837e-19
ExecutionTime = 20.17 s  ClockTime = 21 s

Time = 15.106

Courant Number mean: 0.0412195 max: 0.391688
smoothSolver:  Solving for Ux, Initial residual = 1.66583e-05, Final residual = 8.82056e-08, No Iterations 1
smoothSolver:  Solving for Uy, Initial residual = 1.79454e-05, Final residual = 9.56594e-08, No Iterations 1
DICPCG:  Solving for p, Initial residual = 2.03193e-05, Final residual = 9.67498e-07, No Iterations 107
time step continuity errors : sum local = 7.84117e-12, global = -7.46883e-21, cumulative = 3.20368e-19
DICPCG:  Solving for p, Initial residual = 4.62591e-06, Final residual = 9.4874e-07, No Iterations 86
time step continuity errors : sum local = 7.51571e-12, global = 7.96539e-21, cumulative = 3.28334e-19
ExecutionTime = 20.35 s  ClockTime = 21 s

Time = 15.107

Courant Number mean: 0.0412205 max: 0.391688
smoothSolver:  Solving for Ux, Initial residual = 1.66561e-05, Final residual = 8.8197e-08, No Iterations 1
smoothSolver:  Solving for Uy, Initial residual = 1.79426e-05, Final residual = 9.5647e-08, No Iterations 1
DICPCG:  Solving for p, Initial residual = 2.03907e-05, Final residual = 9.9056e-07, No Iterations 108
time step continuity errors : sum local = 8.23056e-12, global = -6.3484e-22, cumulative = 3.27699e-19
DICPCG:  Solving for p, Initial residual = 4.66935e-06, Final residual = 9.82677e-07, No Iterations 87
time step continuity errors : sum local = 7.97259e-12, global = -1.00887e-20, cumulative = 3.1761e-19
ExecutionTime = 20.53 s  ClockTime = 21 s

Time = 15.108

Courant Number mean: 0.0412215 max: 0.391688
smoothSolver:  Solving for Ux, Initial residual = 1.66532e-05, Final residual = 8.81859e-08, No Iterations 1
smoothSolver:  Solving for Uy, Initial residual = 1.79396e-05, Final residual = 9.56369e-08, No Iterations 1
DICPCG:  Solving for p, Initial residual = 2.06837e-05, Final residual = 9.93335e-07, No Iterations 220
[...]
ExecutionTime = 1241.6 s  ClockTime = 1243 s

Time = 19.974

Courant Number mean: 0.0445941 max: 0.391698
smoothSolver:  Solving for Ux, Initial residual = 6.86261e-06, Final residual = 6.86261e-06, No Iterations 0
smoothSolver:  Solving for Uy, Initial residual = 7.54159e-06, Final residual = 7.54159e-06, No Iterations 0
DICPCG:  Solving for p, Initial residual = 5.51629e-05, Final residual = 2.52839e-06, No Iterations 229
time step continuity errors : sum local = 1.9022e-11, global = -3.94919e-20, cumulative = 2.36619e-18
DICPCG:  Solving for p, Initial residual = 5.47848e-05, Final residual = 9.93413e-07, No Iterations 271
time step continuity errors : sum local = 7.48947e-12, global = -7.95042e-21, cumulative = 2.35824e-18
ExecutionTime = 1242 s  ClockTime = 1243 s

Time = 19.975

Courant Number mean: 0.0445945 max: 0.391698
smoothSolver:  Solving for Ux, Initial residual = 6.86124e-06, Final residual = 6.86124e-06, No Iterations 0
smoothSolver:  Solving for Uy, Initial residual = 7.54012e-06, Final residual = 7.54012e-06, No Iterations 0
DICPCG:  Solving for p, Initial residual = 5.51421e-05, Final residual = 2.55165e-06, No Iterations 229
time step continuity errors : sum local = 1.91973e-11, global = -2.05141e-20, cumulative = 2.33772e-18
DICPCG:  Solving for p, Initial residual = 5.47623e-05, Final residual = 9.84153e-07, No Iterations 271
time step continuity errors : sum local = 7.41983e-12, global = 2.63292e-20, cumulative = 2.36405e-18
ExecutionTime = 1242.47 s  ClockTime = 1243 s

Time = 19.976

Courant Number mean: 0.044595 max: 0.391698
smoothSolver:  Solving for Ux, Initial residual = 6.85986e-06, Final residual = 6.85986e-06, No Iterations 0
smoothSolver:  Solving for Uy, Initial residual = 7.53865e-06, Final residual = 7.53865e-06, No Iterations 0
DICPCG:  Solving for p, Initial residual = 5.51279e-05, Final residual = 2.5446e-06, No Iterations 229
time step continuity errors : sum local = 1.91445e-11, global = -4.79984e-21, cumulative = 2.35925e-18
DICPCG:  Solving for p, Initial residual = 5.47604e-05, Final residual = 9.88588e-07, No Iterations 271
time step continuity errors : sum local = 7.45333e-12, global = -1.91116e-21, cumulative = 2.35734e-18
ExecutionTime = 1242.87 s  ClockTime = 1244 s

Time = 19.977

Courant Number mean: 0.0445954 max: 0.391698
smoothSolver:  Solving for Ux, Initial residual = 6.85849e-06, Final residual = 6.85849e-06, No Iterations 0
smoothSolver:  Solving for Uy, Initial residual = 7.53717e-06, Final residual = 7.53717e-06, No Iterations 0
DICPCG:  Solving for p, Initial residual = 5.51163e-05, Final residual = 2.54404e-06, No Iterations 229
time step continuity errors : sum local = 1.91413e-11, global = -9.73759e-21, cumulative = 2.3476e-18
DICPCG:  Solving for p, Initial residual = 5.47447e-05, Final residual = 9.64308e-07, No Iterations 271
time step continuity errors : sum local = 7.27065e-12, global = 1.0948e-20, cumulative = 2.35855e-18
ExecutionTime = 1243.26 s  ClockTime = 1244 s

Time = 19.978

Courant Number mean: 0.0445959 max: 0.391698
smoothSolver:  Solving for Ux, Initial residual = 6.85712e-06, Final residual = 6.85712e-06, No Iterations 0
smoothSolver:  Solving for Uy, Initial residual = 7.5357e-06, Final residual = 7.5357e-06, No Iterations 0
DICPCG:  Solving for p, Initial residual = 5.51029e-05, Final residual = 2.50119e-06, No Iterations 229
time step continuity errors : sum local = 1.88189e-11, global = 1.53776e-20, cumulative = 2.37393e-18
DICPCG:  Solving for p, Initial residual = 5.47385e-05, Final residual = 9.80113e-07, No Iterations 271
time step continuity errors : sum local = 7.3896e-12, global = 1.95358e-21, cumulative = 2.37588e-18
ExecutionTime = 1243.66 s  ClockTime = 1245 s

Time = 19.979

Courant Number mean: 0.0445963 max: 0.391698
smoothSolver:  Solving for Ux, Initial residual = 6.85575e-06, Final residual = 6.85575e-06, No Iterations 0
smoothSolver:  Solving for Uy, Initial residual = 7.53423e-06, Final residual = 7.53423e-06, No Iterations 0
DICPCG:  Solving for p, Initial residual = 5.50986e-05, Final residual = 2.53756e-06, No Iterations 229
time step continuity errors : sum local = 1.90917e-11, global = 2.29633e-20, cumulative = 2.39885e-18
DICPCG:  Solving for p, Initial residual = 5.47217e-05, Final residual = 9.75858e-07, No Iterations 271
time step continuity errors : sum local = 7.35753e-12, global = -1.88835e-20, cumulative = 2.37996e-18
ExecutionTime = 1244.05 s  ClockTime = 1245 s

Time = 19.98

Courant Number mean: 0.0445968 max: 0.391698
smoothSolver:  Solving for Ux, Initial residual = 6.85438e-06, Final residual = 6.85438e-06, No Iterations 0
smoothSolver:  Solving for Uy, Initial residual = 7.53276e-06, Final residual = 7.53276e-06, No Iterations 0
DICPCG:  Solving for p, Initial residual = 5.5088e-05, Final residual = 2.54071e-06, No Iterations 229
time step continuity errors : sum local = 1.91158e-11, global = 1.14771e-20, cumulative = 2.39144e-18
DICPCG:  Solving for p, Initial residual = 5.47061e-05, Final residual = 9.52405e-07, No Iterations 271
time step continuity errors : sum local = 7.18148e-12, global = -8.60457e-21, cumulative = 2.38284e-18
ExecutionTime = 1244.44 s  ClockTime = 1245 s

Time = 19.981

Courant Number mean: 0.0445972 max: 0.391698
smoothSolver:  Solving for Ux, Initial residual = 6.85301e-06, Final residual = 6.85301e-06, No Iterations 0
smoothSolver:  Solving for Uy, Initial residual = 7.53129e-06, Final residual = 7.53129e-06, No Iterations 0
DICPCG:  Solving for p, Initial residual = 5.50751e-05, Final residual = 2.48415e-06, No Iterations 229
time step continuity errors : sum local = 1.86908e-11, global = 9.66823e-21, cumulative = 2.3925e-18
DICPCG:  Solving for p, Initial residual = 5.47036e-05, Final residual = 9.81291e-07, No Iterations 271
time step continuity errors : sum local = 7.39844e-12, global = 1.30111e-21, cumulative = 2.39381e-18
ExecutionTime = 1244.84 s  ClockTime = 1246 s

Time = 19.982

Courant Number mean: 0.0445977 max: 0.391698
smoothSolver:  Solving for Ux, Initial residual = 6.85164e-06, Final residual = 6.85164e-06, No Iterations 0
smoothSolver:  Solving for Uy, Initial residual = 7.52982e-06, Final residual = 7.52982e-06, No Iterations 0
DICPCG:  Solving for p, Initial residual = 5.50685e-05, Final residual = 2.51294e-06, No Iterations 229
time step continuity errors : sum local = 1.89066e-11, global = -4.2692e-21, cumulative = 2.38954e-18
DICPCG:  Solving for p, Initial residual = 5.46928e-05, Final residual = 9.83738e-07, No Iterations 271
time step continuity errors : sum local = 7.417e-12, global = -6.97332e-21, cumulative = 2.38256e-18
ExecutionTime = 1245.23 s  ClockTime = 1246 s

Time = 19.983

Courant Number mean: 0.0445981 max: 0.391698
smoothSolver:  Solving for Ux, Initial residual = 6.85027e-06, Final residual = 6.85027e-06, No Iterations 0
smoothSolver:  Solving for Uy, Initial residual = 7.52835e-06, Final residual = 7.52835e-06, No Iterations 0
DICPCG:  Solving for p, Initial residual = 5.50535e-05, Final residual = 2.54369e-06, No Iterations 229
time step continuity errors : sum local = 1.91388e-11, global = -9.22105e-21, cumulative = 2.37334e-18
DICPCG:  Solving for p, Initial residual = 5.46794e-05, Final residual = 9.84186e-07, No Iterations 271
time step continuity errors : sum local = 7.42019e-12, global = -2.10448e-21, cumulative = 2.37124e-18
ExecutionTime = 1245.62 s  ClockTime = 1247 s

Time = 19.984

Courant Number mean: 0.0445986 max: 0.391698
smoothSolver:  Solving for Ux, Initial residual = 6.8489e-06, Final residual = 6.8489e-06, No Iterations 0
smoothSolver:  Solving for Uy, Initial residual = 7.52688e-06, Final residual = 7.52688e-06, No Iterations 0
DICPCG:  Solving for p, Initial residual = 5.50443e-05, Final residual = 2.46401e-06, No Iterations 229
time step continuity errors : sum local = 1.85387e-11, global = -1.26303e-20, cumulative = 2.35861e-18
DICPCG:  Solving for p, Initial residual = 5.46666e-05, Final residual = 9.81141e-07, No Iterations 271
time step continuity errors : sum local = 7.39743e-12, global = 5.63478e-21, cumulative = 2.36424e-18
ExecutionTime = 1246.02 s  ClockTime = 1247 s

Time = 19.985

Courant Number mean: 0.044599 max: 0.391698
smoothSolver:  Solving for Ux, Initial residual = 6.84753e-06, Final residual = 6.84753e-06, No Iterations 0
smoothSolver:  Solving for Uy, Initial residual = 7.52541e-06, Final residual = 7.52541e-06, No Iterations 0
DICPCG:  Solving for p, Initial residual = 5.50367e-05, Final residual = 2.55875e-06, No Iterations 229
time step continuity errors : sum local = 1.92514e-11, global = -2.06955e-21, cumulative = 2.36217e-18
DICPCG:  Solving for p, Initial residual = 5.46652e-05, Final residual = 9.84425e-07, No Iterations 271
time step continuity errors : sum local = 7.42226e-12, global = -2.74694e-20, cumulative = 2.3347e-18
ExecutionTime = 1246.41 s  ClockTime = 1247 s

Time = 19.986

Courant Number mean: 0.0445995 max: 0.391698
smoothSolver:  Solving for Ux, Initial residual = 6.84617e-06, Final residual = 6.84617e-06, No Iterations 0
smoothSolver:  Solving for Uy, Initial residual = 7.52394e-06, Final residual = 7.52394e-06, No Iterations 0
DICPCG:  Solving for p, Initial residual = 5.50242e-05, Final residual = 2.5501e-06, No Iterations 229
time step continuity errors : sum local = 1.91863e-11, global = 4.76014e-21, cumulative = 2.33946e-18
DICPCG:  Solving for p, Initial residual = 5.4653e-05, Final residual = 9.81752e-07, No Iterations 271
time step continuity errors : sum local = 7.40218e-12, global = -5.25598e-21, cumulative = 2.33421e-18
ExecutionTime = 1246.81 s  ClockTime = 1248 s

Time = 19.987

Courant Number mean: 0.0445999 max: 0.391698
smoothSolver:  Solving for Ux, Initial residual = 6.8448e-06, Final residual = 6.8448e-06, No Iterations 0
smoothSolver:  Solving for Uy, Initial residual = 7.52247e-06, Final residual = 7.52247e-06, No Iterations 0
DICPCG:  Solving for p, Initial residual = 5.50146e-05, Final residual = 2.56522e-06, No Iterations 229
time step continuity errors : sum local = 1.93006e-11, global = -2.26971e-20, cumulative = 2.31151e-18
DICPCG:  Solving for p, Initial residual = 5.46407e-05, Final residual = 9.6505e-07, No Iterations 271
time step continuity errors : sum local = 7.27662e-12, global = -2.22829e-20, cumulative = 2.28923e-18
ExecutionTime = 1247.2 s  ClockTime = 1248 s

Time = 19.988

Courant Number mean: 0.0446004 max: 0.391698
smoothSolver:  Solving for Ux, Initial residual = 6.84343e-06, Final residual = 6.84343e-06, No Iterations 0
smoothSolver:  Solving for Uy, Initial residual = 7.521e-06, Final residual = 7.521e-06, No Iterations 0
DICPCG:  Solving for p, Initial residual = 5.50086e-05, Final residual = 2.5838e-06, No Iterations 229
time step continuity errors : sum local = 1.94405e-11, global = -4.24148e-21, cumulative = 2.28499e-18
DICPCG:  Solving for p, Initial residual = 5.46265e-05, Final residual = 9.88394e-07, No Iterations 271
time step continuity errors : sum local = 7.4521e-12, global = 1.13402e-20, cumulative = 2.29633e-18
ExecutionTime = 1247.59 s  ClockTime = 1249 s

Time = 19.989

Courant Number mean: 0.0446008 max: 0.391698
smoothSolver:  Solving for Ux, Initial residual = 6.84206e-06, Final residual = 6.84206e-06, No Iterations 0
smoothSolver:  Solving for Uy, Initial residual = 7.51954e-06, Final residual = 7.51954e-06, No Iterations 0
DICPCG:  Solving for p, Initial residual = 5.50044e-05, Final residual = 2.58191e-06, No Iterations 229
time step continuity errors : sum local = 1.9426e-11, global = -5.10682e-21, cumulative = 2.29122e-18
DICPCG:  Solving for p, Initial residual = 5.46231e-05, Final residual = 9.83647e-07, No Iterations 271
time step continuity errors : sum local = 7.41649e-12, global = 4.89555e-21, cumulative = 2.29611e-18
ExecutionTime = 1247.99 s  ClockTime = 1249 s

Time = 19.99

Courant Number mean: 0.0446013 max: 0.391698
smoothSolver:  Solving for Ux, Initial residual = 6.84069e-06, Final residual = 6.84069e-06, No Iterations 0
smoothSolver:  Solving for Uy, Initial residual = 7.51807e-06, Final residual = 7.51807e-06, No Iterations 0
DICPCG:  Solving for p, Initial residual = 5.49996e-05, Final residual = 2.56066e-06, No Iterations 229
time step continuity errors : sum local = 1.92674e-11, global = -2.67143e-20, cumulative = 2.2694e-18
DICPCG:  Solving for p, Initial residual = 5.46018e-05, Final residual = 9.83521e-07, No Iterations 271
time step continuity errors : sum local = 7.41557e-12, global = -7.34157e-21, cumulative = 2.26206e-18
ExecutionTime = 1248.38 s  ClockTime = 1249 s

Time = 19.991

Courant Number mean: 0.0446017 max: 0.391698
smoothSolver:  Solving for Ux, Initial residual = 6.83933e-06, Final residual = 6.83933e-06, No Iterations 0
smoothSolver:  Solving for Uy, Initial residual = 7.5166e-06, Final residual = 7.5166e-06, No Iterations 0
DICPCG:  Solving for p, Initial residual = 5.50016e-05, Final residual = 2.54955e-06, No Iterations 229
time step continuity errors : sum local = 1.91835e-11, global = -1.95952e-20, cumulative = 2.24246e-18
DICPCG:  Solving for p, Initial residual = 5.46012e-05, Final residual = 9.86122e-07, No Iterations 271
time step continuity errors : sum local = 7.43524e-12, global = -3.63491e-20, cumulative = 2.20611e-18
ExecutionTime = 1248.78 s  ClockTime = 1250 s

Time = 19.992

Courant Number mean: 0.0446022 max: 0.391698
smoothSolver:  Solving for Ux, Initial residual = 6.83796e-06, Final residual = 6.83796e-06, No Iterations 0
smoothSolver:  Solving for Uy, Initial residual = 7.51513e-06, Final residual = 7.51513e-06, No Iterations 0
DICPCG:  Solving for p, Initial residual = 5.50292e-05, Final residual = 2.51593e-06, No Iterations 229
time step continuity errors : sum local = 1.89307e-11, global = -3.14281e-21, cumulative = 2.20297e-18
DICPCG:  Solving for p, Initial residual = 5.45976e-05, Final residual = 9.57547e-07, No Iterations 271
time step continuity errors : sum local = 7.22024e-12, global = 1.68734e-20, cumulative = 2.21984e-18
ExecutionTime = 1249.17 s  ClockTime = 1250 s

Time = 19.993

Courant Number mean: 0.0446026 max: 0.391698
smoothSolver:  Solving for Ux, Initial residual = 6.83659e-06, Final residual = 6.83659e-06, No Iterations 0
smoothSolver:  Solving for Uy, Initial residual = 7.51367e-06, Final residual = 7.51367e-06, No Iterations 0
DICPCG:  Solving for p, Initial residual = 5.51768e-05, Final residual = 2.50985e-06, No Iterations 229
time step continuity errors : sum local = 1.88837e-11, global = -8.79306e-21, cumulative = 2.21105e-18
DICPCG:  Solving for p, Initial residual = 5.45985e-05, Final residual = 9.59142e-07, No Iterations 271
time step continuity errors : sum local = 7.23216e-12, global = 1.25181e-20, cumulative = 2.22357e-18
ExecutionTime = 1249.57 s  ClockTime = 1251 s

Time = 19.994

Courant Number mean: 0.0446031 max: 0.391698
smoothSolver:  Solving for Ux, Initial residual = 6.83522e-06, Final residual = 6.83522e-06, No Iterations 0
smoothSolver:  Solving for Uy, Initial residual = 7.51221e-06, Final residual = 7.51221e-06, No Iterations 0
DICPCG:  Solving for p, Initial residual = 5.50292e-05, Final residual = 2.49923e-06, No Iterations 229
time step continuity errors : sum local = 1.88064e-11, global = -7.29086e-21, cumulative = 2.21628e-18
DICPCG:  Solving for p, Initial residual = 5.45765e-05, Final residual = 9.46323e-07, No Iterations 271
time step continuity errors : sum local = 7.13581e-12, global = 9.60946e-21, cumulative = 2.22589e-18
ExecutionTime = 1249.96 s  ClockTime = 1251 s

Time = 19.995

Courant Number mean: 0.0446035 max: 0.391698
smoothSolver:  Solving for Ux, Initial residual = 6.83386e-06, Final residual = 6.83386e-06, No Iterations 0
smoothSolver:  Solving for Uy, Initial residual = 7.51074e-06, Final residual = 7.51074e-06, No Iterations 0
DICPCG:  Solving for p, Initial residual = 5.5445e-05, Final residual = 2.53535e-06, No Iterations 229
time step continuity errors : sum local = 1.90727e-11, global = -3.71353e-21, cumulative = 2.22217e-18
DICPCG:  Solving for p, Initial residual = 5.45932e-05, Final residual = 9.80782e-07, No Iterations 271
time step continuity errors : sum local = 7.39477e-12, global = -8.7755e-21, cumulative = 2.2134e-18
ExecutionTime = 1250.35 s  ClockTime = 1251 s

Time = 19.996

Courant Number mean: 0.044604 max: 0.391698
smoothSolver:  Solving for Ux, Initial residual = 6.8325e-06, Final residual = 6.8325e-06, No Iterations 0
smoothSolver:  Solving for Uy, Initial residual = 7.50925e-06, Final residual = 7.50925e-06, No Iterations 0
DICPCG:  Solving for p, Initial residual = 5.49793e-05, Final residual = 2.56761e-06, No Iterations 229
time step continuity errors : sum local = 1.93202e-11, global = -9.91517e-22, cumulative = 2.21241e-18
DICPCG:  Solving for p, Initial residual = 5.45182e-05, Final residual = 9.7672e-07, No Iterations 271
time step continuity errors : sum local = 7.36425e-12, global = -5.01942e-22, cumulative = 2.21191e-18
ExecutionTime = 1250.75 s  ClockTime = 1252 s

Time = 19.997

Courant Number mean: 0.0446044 max: 0.391698
smoothSolver:  Solving for Ux, Initial residual = 6.83113e-06, Final residual = 6.83113e-06, No Iterations 0
smoothSolver:  Solving for Uy, Initial residual = 7.50778e-06, Final residual = 7.50778e-06, No Iterations 0
DICPCG:  Solving for p, Initial residual = 5.49919e-05, Final residual = 2.48427e-06, No Iterations 229
time step continuity errors : sum local = 1.86941e-11, global = 1.93693e-20, cumulative = 2.23127e-18
DICPCG:  Solving for p, Initial residual = 5.45112e-05, Final residual = 9.77747e-07, No Iterations 271
time step continuity errors : sum local = 7.37198e-12, global = -1.1838e-22, cumulative = 2.23116e-18
ExecutionTime = 1251.14 s  ClockTime = 1252 s

Time = 19.998

Courant Number mean: 0.0446049 max: 0.391698
smoothSolver:  Solving for Ux, Initial residual = 6.82977e-06, Final residual = 6.82977e-06, No Iterations 0
smoothSolver:  Solving for Uy, Initial residual = 7.50632e-06, Final residual = 7.50632e-06, No Iterations 0
DICPCG:  Solving for p, Initial residual = 5.51343e-05, Final residual = 2.56401e-06, No Iterations 229
time step continuity errors : sum local = 1.92908e-11, global = -2.12115e-20, cumulative = 2.20995e-18
DICPCG:  Solving for p, Initial residual = 5.45115e-05, Final residual = 9.35575e-07, No Iterations 271
time step continuity errors : sum local = 7.05513e-12, global = 4.55994e-21, cumulative = 2.2145e-18
ExecutionTime = 1251.53 s  ClockTime = 1253 s

Time = 19.999

Courant Number mean: 0.0446053 max: 0.391698
smoothSolver:  Solving for Ux, Initial residual = 6.82842e-06, Final residual = 6.82842e-06, No Iterations 0
smoothSolver:  Solving for Uy, Initial residual = 7.50485e-06, Final residual = 7.50485e-06, No Iterations 0
DICPCG:  Solving for p, Initial residual = 5.55059e-05, Final residual = 2.61065e-06, No Iterations 229
time step continuity errors : sum local = 1.96402e-11, global = -6.14327e-21, cumulative = 2.20836e-18
DICPCG:  Solving for p, Initial residual = 5.45056e-05, Final residual = 9.6541e-07, No Iterations 271
time step continuity errors : sum local = 7.27954e-12, global = -2.00762e-20, cumulative = 2.18829e-18
ExecutionTime = 1251.93 s  ClockTime = 1253 s

Time = 20

Courant Number mean: 0.0446058 max: 0.391698
smoothSolver:  Solving for Ux, Initial residual = 6.82706e-06, Final residual = 6.82706e-06, No Iterations 0
smoothSolver:  Solving for Uy, Initial residual = 7.50339e-06, Final residual = 7.50339e-06, No Iterations 0
DICPCG:  Solving for p, Initial residual = 5.6057e-05, Final residual = 2.71018e-06, No Iterations 229
time step continuity errors : sum local = 2.0384e-11, global = 1.40294e-20, cumulative = 2.20231e-18
DICPCG:  Solving for p, Initial residual = 5.44813e-05, Final residual = 9.79309e-07, No Iterations 271
time step continuity errors : sum local = 7.38388e-12, global = 1.32502e-20, cumulative = 2.21557e-18
ExecutionTime = 1252.41 s  ClockTime = 1253 s

End

